<?xml version="1.0" encoding="UTF-8"?>
<routes xmlns:xsi="http://www.w3.org/2001/XMLSchema-instance" xsi:noNamespaceSchemaLocation="http://sumo.dlr.de/xsd/routes_file.xsd">
	<vType id="bus" vClass="bus" color="green"/>
	<vType id="default_017" vClass="passenger" color="red"/>
    <vType id="random_017" vClass="passenger" color="red"/>
	<vType id="default_016" vClass="passenger" color="red"/>
    <vType id="random_016" vClass="passenger" color="red"/>
	<vType id="default_015" vClass="passenger" color="red"/>
    <vType id="random_015" vClass="passenger" color="red"/>
	<vType id="default_014" vClass="passenger" color="red"/>
    <vType id="random_014" vClass="passenger" color="red"/>
	<vType id="default_013" vClass="passenger" color="red"/>
    <vType id="random_013" vClass="passenger" color="red"/>
    <vType id="default_012" vClass="passenger" color="red"/>
    <vType id="random_012" vClass="passenger" color="red"/>
	<vType id="default_011" vClass="passenger" color="red"/>
    <vType id="random_011" vClass="passenger" color="red"/>
	<vType id="default_010" vClass="passenger" color="red"/>
    <vType id="random_010" vClass="passenger" color="red"/>
	<vType id="default_009" vClass="passenger" color="red"/>
    <vType id="random_009" vClass="passenger" color="red"/>
	<vType id="default_008" vClass="passenger" color="red"/>
    <vType id="random_008" vClass="passenger" color="red"/>
	<vType id="default_007" vClass="passenger" color="red"/>
    <vType id="random_007" vClass="passenger" color="red"/>
	<vType id="default_006" vClass="passenger" color="red"/>
    <vType id="random_006" vClass="passenger" color="red"/>
	<vType id="default_005" vClass="passenger" color="red"/>
    <vType id="random_005" vClass="passenger" color="red"/>
	<vType id="default_004" vClass="passenger" color="red"/>
    <vType id="random_004" vClass="passenger" color="red"/>
	<vType id="default_003" vClass="passenger" color="red"/>
    <vType id="random_003" vClass="passenger" color="red"/>
	<vType id="default_022" vClass="passenger" color="red"/>
    <vType id="random_022" vClass="passenger" color="red"/>
	<vType id="default_021" vClass="passenger" color="red"/>
    <vType id="random_021" vClass="passenger" color="red"/>
	<vType id="default_020" vClass="passenger" color="red"/>
    <vType id="random_020" vClass="passenger" color="red"/>
	<vType id="default_019" vClass="passenger" color="red"/>
    <vType id="random_019" vClass="passenger" color="red"/>
	<vType id="default_018" vClass="passenger" color="red"/>
    <vType id="random_018" vClass="passenger" color="red"/>
	<vType id="default_002" vClass="passenger" color="red"/>
    <vType id="random_002" vClass="passenger" color="red"/>
	<vType id="default_001" vClass="passenger" color="red"/>
    <vType id="random_001" vClass="passenger" color="red"/>
	<trip id="carIn105842:1" type="default_016" depart="0.00" from="653473569#5" to="201956811#0"/>
	<trip id="carIn107084:1" type="default_016" depart="0.10" from="124812856#0" to="-653473569#5"/>
	<trip id="carIn113711:1" type="default_016" depart="0.10" from="-24693977#1" to="-266565295#5"/>
	<trip id="carIn79400:1" type="default_016" depart="3.70" from="-24693977#1" to="-266565295#5"/>
	<trip id="randUni10474:1" type="random_016" depart="4.60" from="124812856#0" to="-653473569#5"/>
	<trip id="carIn77943:1" type="default_016" depart="5.30" from="124812856#0" to="-653473569#5"/>
	<trip id="carIn28951:1" type="default_016" depart="5.60" from="10425609#0" to="-653473569#5"/>
	<trip id="carIn81046:1" type="default_016" depart="8.30" from="124812856#0" to="-653473569#5"/>
	<trip id="carIn28488:1" type="default_016" depart="10.00" from="653473569#5" to="201956820"/>
	<trip id="carIn89578:1" type="default_016" depart="10.20" from="124812856#0" to="201956810"/>
	<trip id="carIn96537:1" type="default_016" depart="11.00" from="124812856#0" to="202070434#2"/>
	<trip id="h15454c2:3" type="default_016" depart="11.30" from="24608844" to="32978638#0"/>
	<trip id="carIn106322:1" type="default_016" depart="11.60" from="653473569#5" to="201956811#0"/>
	<trip id="carIn77438:1" type="default_016" depart="12.70" from="124812856#0" to="-653473569#5"/>
	<trip id="carIn115641:1" type="default_016" depart="12.90" from="-24693977#1" to="-266565295#5"/>
	<trip id="carIn5482:1" type="default_016" depart="13.20" from="653473569#5" to="201956811#0"/>
	<trip id="carIn26410:1" type="default_016" depart="13.30" from="124812856#0" to="202070434#2"/>
	<trip id="carIn52610:1" type="default_016" depart="14.70" from="-24693977#1" to="-266565295#5"/>
	<trip id="h19804c1:3" type="default_016" depart="15.30" from="124812856#0" to="-653473569#5"/>
	<trip id="carIn36103:1" type="default_016" depart="15.80" from="653473569#5" to="201956811#0"/>
	<trip id="carIn51024:1" type="default_016" depart="15.90" from="124812856#0" to="202070434#2"/>
	<trip id="carIn102997:1" type="default_016" depart="18.00" from="653473569#5" to="201956811#0"/>
	<trip id="carIn128705:1" type="default_016" depart="18.20" from="124812856#0" to="202070434#2"/>
	<trip id="carIn767:1" type="default_016" depart="18.30" from="124812856#0" to="-653473569#5"/>
	<trip id="h21989c1:1" type="default_016" depart="20.20" from="124812856#0" to="202070434#2"/>
	<trip id="carIn75554:1" type="default_016" depart="20.60" from="653473569#5" to="201956811#0"/>
	<trip id="carIn107842:1" type="default_016" depart="20.90" from="124812856#0" to="-653473569#5"/>
	<trip id="carIn10158:1" type="default_016" depart="21.00" from="-24693977#1" to="-266565295#5"/>
	<trip id="h645c1:1" type="default_016" depart="21.40" from="266565295#5" to="-315358253#1"/>
	<trip id="h15382c1:3" type="default_016" depart="22.00" from="124812856#0" to="-653473569#5"/>
	<trip id="60R.41" type="bus" depart="22.50" from="27920078#0" to="201956811#0"/>
	<trip id="carIn3969:1" type="default_016" depart="23.50" from="124812856#0" to="-653473569#5"/>
	<trip id="carIn56649:1" type="default_016" depart="23.70" from="124812856#0" to="-653473569#5"/>
	<trip id="carIn13117:1" type="default_016" depart="25.00" from="27920078#0" to="201956820"/>
	<trip id="carIn38625:1" type="default_016" depart="25.30" from="124812856#0" to="-653473569#5"/>
	<trip id="h10915c2:1" type="default_016" depart="25.60" from="315358253#1" to="-653473569#5"/>
	<trip id="carIn925:1" type="default_016" depart="25.90" from="124812856#0" to="201956810"/>
	<trip id="carIn17767:1" type="default_016" depart="27.00" from="124812856#0" to="-653473569#5"/>
	<trip id="carIn20106:1" type="default_016" depart="27.10" from="27920078#0" to="201956820"/>
	<trip id="carIn25202:1" type="default_016" depart="27.30" from="315358253#1" to="32978638#0"/>
	<trip id="randUni20090:1" type="random_016" depart="27.80" from="653473569#5" to="201956811#0"/>
	<trip id="carIn64859:1" type="default_016" depart="28.20" from="124812856#0" to="-653473569#5"/>
	<trip id="carIn48979:1" type="default_016" depart="28.70" from="124812856#0" to="-653473569#5"/>
	<trip id="randUni5403:1" type="random_016" depart="28.90" from="315358253#1" to="-653473569#5"/>
	<trip id="carIn111853:1" type="default_016" depart="29.00" from="27920078#0" to="-266565295#5"/>
	<trip id="h21130c2:1" type="default_016" depart="29.70" from="10425609#0" to="202070434#2"/>
	<trip id="carIn88932:1" type="default_016" depart="30.40" from="124812856#0" to="-653473569#5"/>
	<trip id="h15353c2:1" type="default_016" depart="30.50" from="124812856#0" to="-653473569#5"/>
	<trip id="carIn114137:1" type="default_016" depart="30.70" from="27920078#0" to="-83304175#2"/>
	<trip id="carIn44740:1" type="default_016" depart="32.10" from="124812856#0" to="-653473569#5"/>
	<trip id="carIn22637:1" type="default_016" depart="32.30" from="27920078#0" to="-83304175#2"/>
	<trip id="randUni29093:1" type="random_016" depart="32.80" from="124812856#0" to="-653473569#5"/>
	<trip id="h20232c1:2" type="default_016" depart="33.30" from="-173169611#0" to="201956820"/>
	<trip id="h20540c1:1" type="default_016" depart="33.30" from="10425609#0" to="-653473569#5"/>
	<trip id="carIn64490:1" type="default_016" depart="33.70" from="124812856#0" to="-653473569#5"/>
	<trip id="randUni27349:1" type="random_016" depart="33.70" from="27920078#0" to="201956811#0"/>
	<trip id="carIn37268:1" type="default_016" depart="34.90" from="653473569#5" to="201956811#0"/>
	<trip id="carIn131078:1" type="default_016" depart="35.20" from="124812856#0" to="201956810"/>
	<trip id="h20403c1:5" type="default_016" depart="35.20" from="27920078#0" to="201956811#0"/>
	<trip id="carIn13362:1" type="default_016" depart="35.40" from="124812856#0" to="-653473569#5"/>
	<trip id="carIn73466:1" type="default_016" depart="36.70" from="27920078#0" to="201956811#0"/>
	<trip id="carIn99385:1" type="default_016" depart="36.90" from="124812856#0" to="-653473569#5"/>
	<trip id="carIn11547:1" type="default_016" depart="37.50" from="124812856#0" to="-653473569#5"/>
	<trip id="h19699c1:3" type="default_016" depart="38.20" from="27920078#0" to="-266565295#5"/>
	<trip id="carIn100220:1" type="default_016" depart="38.80" from="124812856#0" to="202070434#2"/>
	<trip id="h18569c2:1" type="default_016" depart="39.80" from="27920078#0" to="-266565295#5"/>
	<trip id="carIn25314:1" type="default_016" depart="40.00" from="124812856#0" to="-653473569#5"/>
	<trip id="60.39" type="bus" depart="42.30" from="10425609#0" to="202070434#2"/>
	<trip id="carIn32621:1" type="default_016" depart="42.80" from="124812856#0" to="-653473569#5"/>
	<trip id="carIn12152:1" type="default_016" depart="46.30" from="24599188#0.94" to="24693977#1"/>
	<trip id="carIn12900:1" type="default_016" depart="48.00" from="124812856#0" to="201956810"/>
	<trip id="carIn55461:1" type="default_016" depart="51.50" from="10425609#0" to="201956810"/>
	<trip id="h3568c1:3" type="default_016" depart="55.00" from="266565295#5" to="-24634415"/>
	<trip id="h5292c2:1" type="default_016" depart="55.80" from="-24693977#1" to="-266565295#5"/>
	<trip id="h2215c1:1" type="default_016" depart="55.90" from="25145012#7" to="201956811#0"/>
	<trip id="carIn106665:1" type="default_016" depart="57.00" from="266565295#5" to="24693977#1"/>
	<trip id="carIn129760:1" type="default_016" depart="60.00" from="653473569#5" to="201956811#0"/>
	<trip id="carIn7887:1" type="default_016" depart="60.30" from="27920078#0" to="-83304175#2"/>
	<trip id="carIn129626:1" type="default_016" depart="62.20" from="653473569#5" to="201956811#0"/>
	<trip id="carIn124416:1" type="default_016" depart="62.30" from="-173169611#0" to="201956820"/>
	<trip id="carIn55090:1" type="default_016" depart="64.40" from="-173169611#0" to="201956820"/>
	<trip id="h20539c1:3" type="default_016" depart="64.60" from="653473569#5" to="201956811#0"/>
	<trip id="carIn102740:1" type="default_016" depart="66.80" from="25145012#7" to="201956811#0"/>
	<trip id="carIn35345:1" type="default_016" depart="68.40" from="25145012#7" to="201956811#0"/>
	<trip id="carIn33538:1" type="default_016" depart="70.50" from="37386279" to="-24634414#4"/>
	<trip id="carIn26407:1" type="default_016" depart="72.30" from="25145012#7" to="201956811#0"/>
	<trip id="carIn21160:1" type="default_016" depart="73.70" from="-24693977#1" to="-266565295#5"/>
	<trip id="carIn12775:1" type="default_016" depart="75.20" from="10425609#0" to="-653473569#5"/>
	<trip id="carIn90263:1" type="default_016" depart="76.20" from="-24693977#1" to="-266565295#5"/>
	<trip id="h3688c1:1" type="default_016" depart="78.30" from="315358253#1" to="32978638#0"/>
	<trip id="h3154c1:1" type="default_016" depart="80.40" from="-24693977#1" to="-266565295#5"/>
	<trip id="h9878c1:3" type="default_016" depart="85.10" from="-24693977#1" to="32978638#0"/>
	<trip id="carIn78692:1" type="default_016" depart="93.30" from="25145012#7" to="201956811#0"/>
	<trip id="carIn91254:1" type="default_016" depart="95.70" from="653473569#5" to="201956811#0"/>
	<trip id="h9894c1:3" type="default_016" depart="97.60" from="-24693977#1" to="32978638#0"/>
	<trip id="carIn96193:1" type="default_016" depart="104.20" from="25145012#7" to="201956811#0"/>
	<trip id="carIn98489:1" type="default_016" depart="106.70" from="25145012#7" to="201956811#0"/>
	<trip id="h317c2:1" type="default_016" depart="106.70" from="-32978638#0" to="-266565295#5"/>
	<trip id="carIn68826:1" type="default_016" depart="110.80" from="266565295#5" to="202070434#2"/>
	<trip id="h11849c2:1" type="default_016" depart="110.80" from="266565295#5" to="202070434#2"/>
	<trip id="carIn44477:1" type="default_016" depart="111.10" from="27920078#0" to="-266565295#5"/>
	<trip id="carIn92532:1" type="default_016" depart="112.30" from="266565295#5" to="-653473569#5"/>
	<trip id="carIn106325:1" type="default_016" depart="112.70" from="27920078#0" to="-83304175#2"/>
	<trip id="carIn57508:1" type="default_016" depart="114.40" from="27920078#0" to="-266565295#5"/>
	<trip id="carIn124439:1" type="default_016" depart="116.00" from="27920078#0" to="-266565295#5"/>
	<trip id="carIn99738:1" type="default_016" depart="117.50" from="27920078#0" to="-83304175#2"/>
	<trip id="randUni22709:1" type="random_016" depart="117.60" from="315358253#1" to="32978638#0"/>
	<trip id="h4745c1:1" type="default_016" depart="117.60" from="25145012#7" to="201956811#0"/>
	<trip id="h134c1:3" type="default_016" depart="119.20" from="315358253#1" to="32978638#0"/>
	<trip id="carIn112789:1" type="default_016" depart="119.20" from="27920078#0" to="-266565295#5"/>
	<trip id="carIn99509:1" type="default_015" depart="119.60" from="-32978638#0" to="-315358253#1"/>
	<trip id="carIn74045:1" type="default_016" depart="120.80" from="315358253#1" to="32978638#0"/>
	<trip id="carIn103916:1" type="default_016" depart="120.90" from="27920078#0" to="-266565295#5"/>
	<trip id="h21189c1:3" type="default_016" depart="121.70" from="10425609#0" to="202070434#2"/>
	<trip id="carIn33467:1" type="default_016" depart="122.80" from="-24693977#1" to="32978638#0"/>
	<trip id="carIn70484:1" type="default_016" depart="123.20" from="653473569#5" to="-266565295#5"/>
	<trip id="carIn87464:1" type="default_016" depart="124.50" from="-24693977#1" to="-266565295#5"/>
	<trip id="carIn106797:1" type="default_016" depart="124.80" from="653473569#5" to="201956811#0"/>
	<trip id="carIn26708:1" type="default_016" depart="126.40" from="653473569#5" to="201956811#0"/>
	<trip id="carIn124270:1" type="default_016" depart="127.20" from="25145012#7" to="201956811#0"/>
	<trip id="carIn48988:1" type="default_016" depart="127.90" from="653473569#5" to="-266565295#5"/>
	<trip id="h19989c1:1" type="default_016" depart="129.20" from="10425609#0" to="-653473569#5"/>
	<trip id="carIn34550:1" type="default_016" depart="130.20" from="653473569#5" to="201956811#0"/>
	<trip id="carIn92858:1" type="default_016" depart="132.00" from="10425609#0" to="-653473569#5"/>
	<trip id="carIn41791:1" type="default_016" depart="132.00" from="653473569#5" to="201956811#0"/>
	<trip id="carIn101439:1" type="default_016" depart="134.10" from="10425609#0" to="-653473569#5"/>
	<trip id="carIn13016:1" type="default_016" depart="135.30" from="653473569#5" to="201956811#0"/>
	<trip id="h330c1:1" type="default_016" depart="135.60" from="-32978638#0" to="-266565295#5"/>
	<trip id="carIn84229:1" type="default_016" depart="136.60" from="10425609#0" to="-653473569#5"/>
	<trip id="carIn70477:1" type="default_016" depart="137.60" from="653473569#5" to="201956811#0"/>
	<trip id="carIn129628:1" type="default_016" depart="138.30" from="24599188#0.94" to="24693977#1"/>
	<trip id="carIn61538:1" type="default_016" depart="138.50" from="27920078#0" to="-266565295#5"/>
	<trip id="11_frequency1.42" type="bus" depart="138.50" from="315358253#1" to="32978638#0"/>
	<trip id="randUni26227:1" type="random_016" depart="140.30" from="653473569#5" to="201956811#0"/>
	<trip id="carIn98605:1" type="default_016" depart="140.60" from="315358253#1" to="32978638#0"/>
	<trip id="carIn7365:1" type="default_016" depart="141.10" from="10425609#0" to="202070434#2"/>
	<trip id="h319c1:3" type="default_016" depart="142.10" from="315358253#1" to="32978638#0"/>
	<trip id="h10591c1:1" type="default_016" depart="142.20" from="266565295#5" to="-653473569#5"/>
	<trip id="h7328c1:1" type="default_016" depart="142.20" from="-24693977#1" to="201956820"/>
	<trip id="h13760c1:1" type="default_016" depart="142.70" from="266565295#5" to="24693977#1"/>
	<trip id="carIn42651:1" type="default_016" depart="142.90" from="25145012#7" to="201956820"/>
	<trip id="carIn16842:1" type="default_016" depart="143.40" from="10425609#0" to="-653473569#5"/>
	<trip id="h5925c1:1" type="default_016" depart="143.60" from="315358253#1" to="202070434#2"/>
	<trip id="h18300c2:1" type="default_016" depart="144.50" from="25145012#7" to="201956811#0"/>
	<trip id="carIn107250:1" type="default_016" depart="145.10" from="315358253#1" to="32978638#0"/>
	<trip id="carIn75079:1" type="default_016" depart="146.20" from="-173169611#0" to="201956820"/>
	<trip id="randUni14624:1" type="random_016" depart="146.80" from="315358253#1" to="-653473569#5"/>
	<trip id="h14316c1:3" type="default_016" depart="148.80" from="315358253#1" to="32978638#0"/>
	<trip id="carIn24735:1" type="default_016" depart="149.50" from="266565295#5" to="24693977#1"/>
	<trip id="carIn24709:1" type="default_016" depart="150.30" from="266565295#5" to="24693977#1"/>
	<trip id="carIn77243:1" type="default_016" depart="151.60" from="266565295#5" to="202070434#2"/>
	<trip id="carIn95310:1" type="default_016" depart="152.30" from="27920078#0" to="-83304175#2"/>
	<trip id="carIn27994:1" type="default_016" depart="154.00" from="27920078#0" to="-266565295#5"/>
	<trip id="carIn40211:1" type="default_016" depart="155.80" from="27920078#0" to="-83304175#2"/>
	<trip id="carIn117869:1" type="default_016" depart="157.20" from="-32978638#0" to="-315358253#1"/>
	<trip id="h2108c1:1" type="default_016" depart="157.80" from="27920078#0" to="-315358253#1"/>
	<trip id="carIn115169:1" type="default_016" depart="158.30" from="24599188#0.94" to="24693977#1"/>
	<trip id="carIn27323:1" type="default_016" depart="160.30" from="24599188#0.94" to="24693977#1"/>
	<trip id="h9873c2:1" type="default_016" depart="165.20" from="-32978638#0" to="202070434#2"/>
	<trip id="carIn106296:1" type="default_016" depart="166.80" from="124812856#0" to="-653473569#5"/>
	<trip id="carIn86816:1" type="default_016" depart="168.10" from="653473569#5" to="201956811#0"/>
	<trip id="carIn104643:1" type="default_016" depart="173.30" from="124812856#0" to="-653473569#5"/>
	<trip id="carIn42216:1" type="default_016" depart="173.70" from="-173169611#0" to="201956820"/>
	<trip id="carIn7631:1" type="default_016" depart="185.10" from="-32978638#0" to="-315358253#1"/>
	<trip id="carIn79321:1" type="default_016" depart="185.40" from="-24693977#1" to="-266565295#5"/>
	<trip id="carIn84825:1" type="default_016" depart="187.00" from="-24693977#1" to="-266565295#5"/>
	<trip id="h19105c2:3" type="default_016" depart="194.20" from="10425609#0" to="-653473569#5"/>
	<trip id="carIn71528:1" type="default_016" depart="196.90" from="-24693977#1" to="-266565295#5"/>
	<trip id="carIn41197:1" type="default_016" depart="197.10" from="25145012#7" to="201956820"/>
	<trip id="carIn48068:1" type="default_016" depart="198.00" from="27920078#0" to="-83304175#2"/>
	<trip id="carIn60437:1" type="default_016" depart="199.50" from="27920078#0" to="-83304175#2"/>
	<trip id="carIn86381:1" type="default_016" depart="200.60" from="266565295#5" to="202070434#2"/>
	<trip id="carIn32135:1" type="default_016" depart="201.00" from="27920078#0" to="201956811#0"/>
	<trip id="carIn57377:1" type="default_016" depart="201.50" from="266565295#5" to="202070434#2"/>
	<trip id="carIn46110:1" type="default_016" depart="203.40" from="315358253#1" to="32978638#0"/>
	<trip id="carIn47486:1" type="default_016" depart="204.10" from="266565295#5" to="202070434#2"/>
	<trip id="h6541c1:3" type="default_016" depart="206.20" from="315358253#1" to="32978638#0"/>
	<trip id="carIn102915:1" type="default_016" depart="209.90" from="653473569#5" to="201956811#0"/>
	<trip id="randUni33724:1" type="random_016" depart="211.60" from="653473569#5" to="201956811#0"/>
	<trip id="carIn100288:1" type="default_016" depart="212.10" from="25145012#7" to="201956811#0"/>
	<trip id="randUni31145:1" type="random_016" depart="213.50" from="10425609#0" to="201956810"/>
	<trip id="carIn29531:1" type="default_016" depart="216.40" from="25145012#7" to="201956811#0"/>
	<trip id="carIn2912:1" type="default_016" depart="218.00" from="25145012#7" to="201956811#0"/>
	<trip id="carIn9810:1" type="default_016" depart="219.00" from="315358253#1" to="32978638#0"/>
	<trip id="randUni2407:1" type="random_016" depart="219.00" from="10425609#0" to="201956810"/>
	<trip id="carIn49437:1" type="default_016" depart="219.50" from="25145012#7" to="201956811#0"/>
	<trip id="carIn114105:1" type="default_016" depart="220.60" from="10425609#0" to="-653473569#5"/>
	<trip id="h5170c2:1" type="default_016" depart="224.80" from="-24693977#1" to="-266565295#5"/>
	<trip id="carIn72316:1" type="default_016" depart="225.30" from="10425609#0" to="-653473569#5"/>
	<trip id="h2483c1:1" type="default_016" depart="226.30" from="-24693977#1" to="201956820"/>
	<trip id="carIn82399:1" type="default_016" depart="227.10" from="10425609#0" to="202070434#2"/>
	<trip id="h18996c2:1" type="default_016" depart="228.80" from="25145012#7" to="201956820"/>
	<trip id="randUni6170:1" type="random_016" depart="234.60" from="10425609#0" to="202070434#2"/>
	<trip id="h3536c1:1" type="default_016" depart="235.00" from="315358253#1" to="32978638#0"/>
	<trip id="carIn70936:1" type="default_016" depart="237.70" from="24599188#0.94" to="24693977#1"/>
	<trip id="h8222c1:5" type="default_016" depart="237.90" from="266565295#5" to="24693977#1"/>
	<trip id="carIn36687:1" type="default_016" depart="239.70" from="24599188#0.94" to="24693977#1"/>
	<trip id="carIn105694:1" type="default_016" depart="239.90" from="266565295#5" to="202070434#2"/>
	<trip id="h15564c1:1" type="default_016" depart="242.30" from="10425609#0" to="202070434#2"/>
	<trip id="carIn32833:1" type="default_016" depart="243.40" from="24599188#0.94" to="24693977#1"/>
	<trip id="h13318c2:1" type="default_016" depart="243.40" from="-32978638#0" to="202070434#2"/>
	<trip id="carIn116805:1" type="default_016" depart="243.80" from="266565295#5" to="-653473569#5"/>
	<trip id="carIn20174:1" type="default_016" depart="245.00" from="-32978638#0" to="24693977#1"/>
	<trip id="carIn2162:1" type="default_016" depart="246.60" from="-32978638#0" to="24693977#1"/>
	<trip id="h2997c2:1" type="default_016" depart="248.20" from="27920078#0" to="-83304175#2"/>
	<trip id="carIn83006:1" type="default_016" depart="248.30" from="-32978638#0" to="24693977#1"/>
	<trip id="carIn101921:1" type="default_016" depart="249.90" from="-32978638#0" to="-315358253#1"/>
	<trip id="h7759c1:3" type="default_016" depart="251.60" from="-32978638#0" to="-315358253#1"/>
	<trip id="h8633c1:3" type="default_016" depart="252.80" from="-24693977#1" to="201956820"/>
	<trip id="carIn120813:1" type="default_016" depart="255.40" from="24599188#0.94" to="24693977#1"/>
	<trip id="carIn64958:1" type="default_016" depart="256.20" from="10425609#0" to="-653473569#5"/>
	<trip id="carIn103052:1" type="default_016" depart="257.90" from="124812856#0" to="201956810"/>
	<trip id="50R_frequency3.17" type="bus" depart="260.70" from="653473569#5" to="201956811#0"/>
	<trip id="h13311c1:3" type="default_016" depart="260.80" from="315358253#1" to="32978638#0"/>
	<trip id="randUni24217:1" type="random_016" depart="261.00" from="124812856#0" to="-653473569#5"/>
	<trip id="h18601c1:3" type="default_016" depart="262.90" from="653473569#5" to="201956811#0"/>
	<trip id="randUni13258:1" type="random_016" depart="263.40" from="-173169611#0" to="-315358253#1"/>
	<trip id="carIn133015:1" type="default_016" depart="263.80" from="10425609#0" to="-653473569#5"/>
	<trip id="carIn88912:1" type="default_016" depart="266.60" from="-32978638#0" to="-315358253#1"/>
	<trip id="carIn126072:1" type="default_016" depart="269.00" from="315358253#1" to="32978638#0"/>
	<trip id="randUni33912:1" type="random_016" depart="272.80" from="-22716549#6" to="202070434#2"/>
	<trip id="carIn27352:1" type="default_016" depart="278.00" from="124812856#0" to="201956810"/>
	<trip id="h19571c2:3" type="default_016" depart="281.50" from="10425609#0" to="-653473569#5"/>
	<trip id="carIn75793:1" type="default_016" depart="283.00" from="653473569#5" to="-83304175#2"/>
	<trip id="randUni23028:1" type="random_016" depart="283.70" from="124812856#0" to="201956810"/>
	<trip id="carIn69046:1" type="default_016" depart="286.40" from="-32978638#0" to="-315358253#1"/>
	<trip id="h21699c2:1" type="default_016" depart="287.90" from="-32978638#0" to="-315358253#1"/>
	<trip id="h2767c1:1" type="default_016" depart="288.10" from="27920078#0" to="-315358253#1"/>
	<trip id="h18868c2:3" type="default_016" depart="289.40" from="-32978638#0" to="24693977#1"/>
	<trip id="carIn44541:1" type="default_016" depart="290.00" from="27920078#0" to="-83304175#2"/>
	<trip id="h16888c2:1" type="default_016" depart="291.80" from="266565295#5" to="24693977#1"/>
	<trip id="h17890c1:3" type="default_016" depart="291.90" from="315358253#1" to="32978638#0"/>
	<trip id="carIn82741:1" type="default_016" depart="292.70" from="25145012#7" to="201956820"/>
	<trip id="h22816c2:3" type="default_016" depart="295.10" from="315358253#1" to="201956820"/>
	<trip id="h19249c2:1" type="default_016" depart="297.40" from="25145012#7" to="201956820"/>
	<trip id="h4784c1:3" type="default_016" depart="298.70" from="315358253#1" to="32978638#0"/>
	<trip id="h21872c1:1" type="default_016" depart="300.10" from="-32978638#0" to="-315358253#1"/>
	<trip id="carIn41236:1" type="default_016" depart="301.70" from="-32978638#0" to="-315358253#1"/>
	<trip id="carIn48137:1" type="default_016" depart="302.60" from="315358253#1" to="32978638#0"/>
	<trip id="carIn125694:1" type="default_016" depart="303.50" from="25145012#7" to="201956820"/>
	<trip id="10R_frequency1.41" type="bus" depart="305.20" from="-32978638#0" to="24693977#1"/>
	<trip id="h17593c1:1" type="default_016" depart="305.90" from="10425609#0" to="-653473569#5"/>
	<trip id="h3847c1:3" type="default_016" depart="306.40" from="315358253#1" to="32978638#0"/>
	<trip id="carIn101809:1" type="default_016" depart="307.20" from="-32978638#0" to="-315358253#1"/>
	<trip id="carIn88487:1" type="default_016" depart="309.00" from="-32978638#0" to="-315358253#1"/>
	<trip id="randUni16001:1" type="random_016" depart="311.50" from="10425609#0" to="201956810"/>
	<trip id="carIn127305:1" type="default_016" depart="314.40" from="-173169611#0" to="201956820"/>
	<trip id="randUni26693:1" type="random_016" depart="323.10" from="266565295#5" to="24693977#1"/>
	<trip id="carIn39047:1" type="default_016" depart="326.40" from="266565295#5" to="24693977#1"/>
	<trip id="h21908c1:3" type="default_016" depart="326.60" from="-24693977#1" to="201956820"/>
	<trip id="h15472c1:3" type="default_016" depart="328.20" from="-24693977#1" to="201956820"/>
	<trip id="h17086c2:1" type="default_016" depart="329.00" from="266565295#5" to="24693977#1"/>
	<trip id="h19505c1:1" type="default_016" depart="329.50" from="315358253#1" to="32978638#0"/>
	<trip id="carIn79443:1" type="default_016" depart="330.10" from="266565295#5" to="202070434#2"/>
	<trip id="carIn92490:1" type="default_016" depart="330.50" from="266565295#5" to="24693977#1"/>
	<trip id="h13562c1:1" type="default_016" depart="331.40" from="-32978638#0" to="24693977#1"/>
	<trip id="carIn92238:1" type="default_016" depart="335.40" from="-32978638#0" to="-315358253#1"/>
	<trip id="carIn112995:1" type="default_016" depart="336.10" from="10425609#0" to="-653473569#5"/>
	<trip id="h8907c1:1" type="default_016" depart="337.10" from="-32978638#0" to="24693977#1"/>
	<trip id="carIn15652:1" type="default_016" depart="338.70" from="-32978638#0" to="24693977#1"/>
	<trip id="randUni5976:1" type="random_016" depart="339.20" from="10425609#0" to="-653473569#5"/>
	<trip id="carIn98105:1" type="default_016" depart="340.10" from="124812856#0" to="201956810"/>
	<trip id="carIn14948:1" type="default_016" depart="340.70" from="-32978638#0" to="-315358253#1"/>
	<trip id="carIn99578:1" type="default_016" depart="340.80" from="25145012#7" to="201956820"/>
	<trip id="carIn36876:1" type="default_016" depart="342.40" from="-32978638#0" to="-315358253#1"/>
	<trip id="h14212c1:3" type="default_016" depart="342.90" from="10425609#0" to="-653473569#5"/>
	<trip id="h2510c1:1" type="default_016" depart="344.10" from="-24693977#1" to="201956820"/>
	<trip id="h19940c1:1" type="default_016" depart="344.50" from="10425609#0" to="-653473569#5"/>
	<trip id="carIn67360:1" type="default_016" depart="344.60" from="124812856#0" to="-653473569#5"/>
	<trip id="h10c2:3" type="default_016" depart="344.90" from="-32978638#0" to="-315358253#1"/>
	<trip id="carIn60827:1" type="default_016" depart="346.20" from="10425609#0" to="-653473569#5"/>
	<trip id="carIn23683:1" type="default_016" depart="349.10" from="25145012#7" to="201956820"/>
	<trip id="carIn96510:1" type="default_016" depart="350.70" from="25145012#7" to="201956820"/>
	<trip id="carIn119432:1" type="default_016" depart="352.30" from="25145012#7" to="201956820"/>
	<trip id="carIn124505:1" type="default_016" depart="352.40" from="24599188#0.94" to="24693977#1"/>
	<trip id="randUni11215:1" type="random_016" depart="352.50" from="124812856#0" to="201956810"/>
	<trip id="h15285c2:1" type="default_016" depart="354.30" from="24599188#0.94" to="24693977#1"/>
	<trip id="h20688c2:1" type="default_016" depart="355.40" from="124812856#0" to="-653473569#5"/>
	<trip id="h825c2:3" type="default_016" depart="357.50" from="315358253#1" to="32978638#0"/>
	<trip id="carIn113750:1" type="default_016" depart="360.50" from="24599188#0.94" to="24599188#0.94"/>
	<trip id="h15631c1:1" type="default_016" depart="361.50" from="10425609#0" to="-653473569#5"/>