<?xml version="1.0" encoding="UTF-8"?>
<routes xmlns:xsi="http://www.w3.org/2001/XMLSchema-instance" xsi:noNamespaceSchemaLocation="http://sumo.dlr.de/xsd/routes_file.xsd">
	<vType id="bus" vClass="bus" color="green"/>
	<vType id="default_017" vClass="passenger" color="red"/>
    <vType id="random_017" vClass="passenger" color="red"/>
	<vType id="default_016" vClass="passenger" color="red"/>
    <vType id="random_016" vClass="passenger" color="red"/>
	<vType id="default_015" vClass="passenger" color="red"/>
    <vType id="random_015" vClass="passenger" color="red"/>
	<vType id="default_014" vClass="passenger" color="red"/>
    <vType id="random_014" vClass="passenger" color="red"/>
	<vType id="default_013" vClass="passenger" color="red"/>
    <vType id="random_013" vClass="passenger" color="red"/>
    <vType id="default_012" vClass="passenger" color="red"/>
    <vType id="random_012" vClass="passenger" color="red"/>
	<vType id="default_011" vClass="passenger" color="red"/>
    <vType id="random_011" vClass="passenger" color="red"/>
	<vType id="default_010" vClass="passenger" color="red"/>
    <vType id="random_010" vClass="passenger" color="red"/>
	<vType id="default_009" vClass="passenger" color="red"/>
    <vType id="random_009" vClass="passenger" color="red"/>
	<vType id="default_008" vClass="passenger" color="red"/>
    <vType id="random_008" vClass="passenger" color="red"/>
	<vType id="default_007" vClass="passenger" color="red"/>
    <vType id="random_007" vClass="passenger" color="red"/>
	<vType id="default_006" vClass="passenger" color="red"/>
    <vType id="random_006" vClass="passenger" color="red"/>
	<vType id="default_005" vClass="passenger" color="red"/>
    <vType id="random_005" vClass="passenger" color="red"/>
	<vType id="default_004" vClass="passenger" color="red"/>
    <vType id="random_004" vClass="passenger" color="red"/>
	<vType id="default_003" vClass="passenger" color="red"/>
    <vType id="random_003" vClass="passenger" color="red"/>
	<vType id="default_022" vClass="passenger" color="red"/>
    <vType id="random_022" vClass="passenger" color="red"/>
	<vType id="default_021" vClass="passenger" color="red"/>
    <vType id="random_021" vClass="passenger" color="red"/>
	<vType id="default_020" vClass="passenger" color="red"/>
    <vType id="random_020" vClass="passenger" color="red"/>
	<vType id="default_019" vClass="passenger" color="red"/>
    <vType id="random_019" vClass="passenger" color="red"/>
	<vType id="default_018" vClass="passenger" color="red"/>
    <vType id="random_018" vClass="passenger" color="red"/>
	<vType id="default_002" vClass="passenger" color="red"/>
    <vType id="random_002" vClass="passenger" color="red"/>
	<vType id="default_001" vClass="passenger" color="red"/>
    <vType id="random_001" vClass="passenger" color="red"/>
	<trip id="carIn105842:1" type="default_016" depart="0.00" from="653473569#5" to="124812857#0"/>
	<trip id="h8750c1:1" type="default_016" depart="8.30" from="104010354" to="124812857#0"/>
	<trip id="carIn28488:1" type="default_016" depart="10.00" from="653473569#5" to="124812857#0"/>
	<trip id="carIn21562:1" type="default_016" depart="10.60" from="201963537#1" to="-653473569#5"/>
	<trip id="carIn106322:1" type="default_016" depart="11.60" from="653473569#5" to="124812857#0"/>
	<trip id="carIn28951:1" type="default_016" depart="12.50" from="201963537#1" to="-653473569#5"/>
	<trip id="carIn5482:1" type="default_016" depart="13.20" from="653473569#5" to="124812857#0"/>
	<trip id="carIn36103:1" type="default_016" depart="15.80" from="653473569#5" to="124812857#0"/>
	<trip id="carIn102997:1" type="default_016" depart="18.00" from="653473569#5" to="124812857#0"/>
	<trip id="carIn75554:1" type="default_016" depart="20.60" from="653473569#5" to="124812857#0"/>
	<trip id="carIn26332:1" type="default_015" depart="20.80" from="201963537#1" to="104012170"/>
	<trip id="carIn115534:1" type="default_015" depart="21.20" from="201963537#1" to="104012170"/>
	<trip id="h15808c1:1" type="default_016" depart="21.40" from="201963537#1" to="104012170"/>
	<trip id="carIn46350:1" type="default_016" depart="23.00" from="201963537#1" to="-653473569#5"/>
	<trip id="carIn119141:1" type="default_015" depart="23.10" from="201963537#1" to="104012170"/>
	<trip id="carIn75667:1" type="default_016" depart="24.40" from="201963537#1" to="-653473569#5"/>
	<trip id="carIn119185:1" type="default_015" depart="25.00" from="201963537#1" to="104012170"/>
	<trip id="carIn76112:1" type="default_016" depart="25.80" from="201963537#1" to="-653473569#5"/>
	<trip id="carIn79970:1" type="default_016" depart="26.60" from="201963537#1" to="104012170"/>
	<trip id="carIn27521:1" type="default_015" depart="27.30" from="201963537#1" to="-653473569#5"/>
	<trip id="randUni20090:1" type="random_016" depart="27.80" from="653473569#5" to="124812857#0"/>
	<trip id="carIn27195:1" type="default_016" depart="27.90" from="201963537#1" to="104012170"/>
	<trip id="carIn130142:1" type="default_015" depart="28.90" from="201963537#1" to="-653473569#5"/>
	<trip id="randUni34730:1" type="random_016" depart="30.40" from="201963537#1" to="-653473569#5"/>
	<trip id="carIn96537:1" type="default_016" depart="30.50" from="201963537#1" to="104012170"/>
	<trip id="h14257c2:1" type="default_016" depart="32.00" from="201963537#1" to="-653473569#5"/>
	<trip id="carIn26410:1" type="default_016" depart="32.10" from="201963537#1" to="104012170"/>
	<trip id="60R.41" type="bus" depart="33.30" from="104010354" to="124812857#0"/>
	<trip id="carIn107084:1" type="default_016" depart="33.60" from="201963537#1" to="-653473569#5"/>
	<trip id="carIn51024:1" type="default_016" depart="33.80" from="201963537#1" to="104012170"/>
	<trip id="carIn37268:1" type="default_016" depart="34.90" from="653473569#5" to="124812857#0"/>
	<trip id="carIn77943:1" type="default_016" depart="35.20" from="201963537#1" to="-653473569#5"/>
	<trip id="carIn128705:1" type="default_016" depart="35.50" from="201963537#1" to="104012170"/>
	<trip id="carIn13117:1" type="default_016" depart="36.40" from="104010354" to="124812857#0"/>
	<trip id="carIn81046:1" type="default_016" depart="36.80" from="201963537#1" to="-653473569#5"/>
	<trip id="h21989c1:1" type="default_016" depart="37.10" from="201963537#1" to="104012170"/>
	<trip id="h15382c1:3" type="default_016" depart="38.90" from="201963537#1" to="-653473569#5"/>
	<trip id="carIn20106:1" type="default_016" depart="39.30" from="104010354" to="124812857#0"/>
	<trip id="randUni10474:1" type="random_016" depart="39.80" from="201963537#1" to="-653473569#5"/>
	<trip id="carIn56649:1" type="default_016" depart="42.00" from="201963537#1" to="-653473569#5"/>
	<trip id="carIn38625:1" type="default_016" depart="42.10" from="201963537#1" to="-653473569#5"/>
	<trip id="carIn17767:1" type="default_016" depart="43.50" from="201963537#1" to="-653473569#5"/>
	<trip id="carIn77438:1" type="default_016" depart="44.00" from="201963537#1" to="-653473569#5"/>
	<trip id="randUni27349:1" type="random_016" depart="44.90" from="104010354" to="124812857#0"/>
	<trip id="carIn48979:1" type="default_016" depart="45.00" from="201963537#1" to="-653473569#5"/>
	<trip id="h19804c1:3" type="default_016" depart="46.00" from="201963537#1" to="-653473569#5"/>
	<trip id="h20403c1:5" type="default_016" depart="46.40" from="104010354" to="124812857#0"/>
	<trip id="carIn88932:1" type="default_016" depart="46.50" from="201963537#1" to="-653473569#5"/>
	<trip id="carIn767:1" type="default_016" depart="48.00" from="201963537#1" to="-653473569#5"/>
	<trip id="carIn73466:1" type="default_016" depart="48.10" from="104010354" to="124812857#0"/>
	<trip id="carIn64490:1" type="default_016" depart="49.10" from="201963537#1" to="-653473569#5"/>
	<trip id="carIn107842:1" type="default_016" depart="50.10" from="201963537#1" to="-653473569#5"/>
	<trip id="carIn3969:1" type="default_016" depart="52.30" from="201963537#1" to="-653473569#5"/>
	<trip id="carIn129760:1" type="default_016" depart="60.00" from="653473569#5" to="124812857#0"/>
	<trip id="carIn129626:1" type="default_016" depart="62.20" from="653473569#5" to="124812857#0"/>
	<trip id="h21130c2:1" type="default_016" depart="63.20" from="201963537#1" to="104012170"/>
	<trip id="h20539c1:3" type="default_016" depart="64.60" from="653473569#5" to="124812857#0"/>
	<trip id="h20540c1:1" type="default_016" depart="64.90" from="201963537#1" to="-653473569#5"/>
	<trip id="carIn36018:1" type="default_016" depart="66.40" from="104010354" to="-653473569#5"/>
	<trip id="60.39" type="bus" depart="68.30" from="201963537#1" to="104012170"/>
	<trip id="h2215c1:1" type="default_016" depart="69.70" from="104010354" to="124812857#0"/>
	<trip id="carIn100220:1" type="default_016" depart="75.10" from="201963537#1" to="104012170"/>
	<trip id="carIn44740:1" type="default_016" depart="75.20" from="201963537#1" to="-653473569#5"/>
	<trip id="carIn102740:1" type="default_016" depart="75.30" from="104010354" to="124812857#0"/>
	<trip id="carIn64859:1" type="default_016" depart="77.50" from="201963537#1" to="-653473569#5"/>
	<trip id="carIn35345:1" type="default_016" depart="77.70" from="104010354" to="124812857#0"/>
	<trip id="h3139c1:3" type="default_016" depart="83.10" from="104010354" to="124812857#0"/>
	<trip id="carIn26407:1" type="default_016" depart="85.80" from="104010354" to="124812857#0"/>
	<trip id="carIn91254:1" type="default_016" depart="95.70" from="653473569#5" to="124812857#0"/>
	<trip id="carIn78692:1" type="default_016" depart="101.80" from="104010354" to="124812857#0"/>
	<trip id="carIn12775:1" type="default_016" depart="102.30" from="201963537#1" to="-653473569#5"/>
	<trip id="h15353c2:1" type="default_016" depart="112.40" from="201963537#1" to="-653473569#5"/>
	<trip id="carIn96193:1" type="default_016" depart="112.90" from="104010354" to="124812857#0"/>
	<trip id="carIn13362:1" type="default_016" depart="115.20" from="201963537#1" to="-653473569#5"/>
	<trip id="carIn98489:1" type="default_016" depart="116.20" from="104010354" to="124812857#0"/>
	<trip id="carIn70484:1" type="default_016" depart="123.20" from="653473569#5" to="104012170"/>
	<trip id="carIn106797:1" type="default_016" depart="124.80" from="653473569#5" to="124812857#0"/>
	<trip id="h4745c1:1" type="default_016" depart="125.40" from="104010354" to="124812857#0"/>
	<trip id="carIn99385:1" type="default_016" depart="125.50" from="201963537#1" to="-653473569#5"/>
	<trip id="carIn26708:1" type="default_016" depart="126.40" from="653473569#5" to="124812857#0"/>
	<trip id="carIn48988:1" type="default_016" depart="127.90" from="653473569#5" to="104012170"/>
	<trip id="carIn34550:1" type="default_016" depart="130.20" from="653473569#5" to="124812857#0"/>
	<trip id="carIn41791:1" type="default_016" depart="132.00" from="653473569#5" to="124812857#0"/>
	<trip id="carIn13016:1" type="default_016" depart="135.30" from="653473569#5" to="124812857#0"/>
	<trip id="carIn124270:1" type="default_016" depart="135.80" from="104010354" to="124812857#0"/>
	<trip id="carIn70477:1" type="default_016" depart="137.60" from="653473569#5" to="124812857#0"/>
	<trip id="h21189c1:3" type="default_016" depart="138.20" from="201963537#1" to="104012170"/>
	<trip id="h19989c1:1" type="default_016" depart="139.90" from="201963537#1" to="-653473569#5"/>
	<trip id="randUni26227:1" type="random_016" depart="140.30" from="653473569#5" to="124812857#0"/>
	<trip id="carIn92858:1" type="default_016" depart="141.70" from="201963537#1" to="-653473569#5"/>
	<trip id="carIn101439:1" type="default_016" depart="143.50" from="201963537#1" to="-653473569#5"/>
	<trip id="carIn84229:1" type="default_016" depart="145.40" from="201963537#1" to="-653473569#5"/>
	<trip id="carIn7365:1" type="default_016" depart="147.90" from="201963537#1" to="104012170"/>
	<trip id="carIn16842:1" type="default_016" depart="150.20" from="201963537#1" to="-653473569#5"/>
	<trip id="randUni5403:1" type="random_016" depart="153.30" from="104010354" to="-653473569#5"/>
	<trip id="h10915c2:1" type="default_016" depart="156.00" from="104010354" to="-653473569#5"/>
	<trip id="randUni29093:1" type="random_016" depart="158.10" from="201963537#1" to="-653473569#5"/>
	<trip id="carIn42651:1" type="default_016" depart="158.80" from="104010354" to="124812857#0"/>
	<trip id="carIn11547:1" type="default_016" depart="159.70" from="201963537#1" to="-653473569#5"/>
	<trip id="h18300c2:1" type="default_016" depart="160.60" from="104010354" to="124812857#0"/>
	<trip id="carIn32621:1" type="default_016" depart="162.00" from="201963537#1" to="-653473569#5"/>
	<trip id="carIn86816:1" type="default_016" depart="168.10" from="653473569#5" to="124812857#0"/>
	<trip id="h7328c1:1" type="default_016" depart="185.80" from="104010354" to="124812857#0"/>
	<trip id="carIn25314:1" type="default_016" depart="193.50" from="201963537#1" to="-653473569#5"/>
	<trip id="carIn41197:1" type="default_016" depart="206.40" from="104010354" to="124812857#0"/>
	<trip id="h19105c2:3" type="default_016" depart="207.20" from="201963537#1" to="-653473569#5"/>
	<trip id="carIn102915:1" type="default_016" depart="209.90" from="653473569#5" to="124812857#0"/>
	<trip id="randUni33724:1" type="random_016" depart="211.60" from="653473569#5" to="124812857#0"/>
	<trip id="carIn32135:1" type="default_016" depart="211.80" from="104010354" to="124812857#0"/>
	<trip id="carIn106296:1" type="default_016" depart="217.10" from="201963537#1" to="-653473569#5"/>
	<trip id="carIn104643:1" type="default_016" depart="218.70" from="201963537#1" to="-653473569#5"/>
	<trip id="carIn100288:1" type="default_016" depart="220.40" from="104010354" to="124812857#0"/>
	<trip id="carIn29531:1" type="default_016" depart="224.90" from="104010354" to="124812857#0"/>
	<trip id="carIn2912:1" type="default_016" depart="227.20" from="104010354" to="124812857#0"/>
	<trip id="carIn49437:1" type="default_016" depart="229.30" from="104010354" to="124812857#0"/>
	<trip id="carIn114105:1" type="default_016" depart="231.10" from="201963537#1" to="-653473569#5"/>
	<trip id="carIn72316:1" type="default_016" depart="232.90" from="201963537#1" to="-653473569#5"/>
	<trip id="carIn82399:1" type="default_016" depart="234.70" from="201963537#1" to="104012170"/>
	<trip id="h18996c2:1" type="default_016" depart="237.00" from="104010354" to="124812857#0"/>
	<trip id="h3864c1:3" type="default_016" depart="243.50" from="104010354" to="124812857#0"/>
	<trip id="carIn92532:1" type="default_016" depart="245.00" from="104010354" to="-653473569#5"/>
	<trip id="randUni14624:1" type="random_016" depart="248.20" from="104010354" to="-653473569#5"/>
	<trip id="h10591c1:1" type="default_016" depart="250.00" from="104010354" to="-653473569#5"/>
	<trip id="randUni6170:1" type="random_016" depart="257.20" from="201963537#1" to="104012170"/>
	<trip id="h15564c1:1" type="default_016" depart="258.90" from="201963537#1" to="104012170"/>
	<trip id="50R_frequency3.17" type="bus" depart="260.70" from="653473569#5" to="124812857#0"/>
	<trip id="carIn64958:1" type="default_016" depart="261.90" from="201963537#1" to="-653473569#5"/>
	<trip id="h18601c1:3" type="default_016" depart="262.90" from="653473569#5" to="124812857#0"/>
	<trip id="h6245c2:1" type="default_016" depart="264.30" from="653473569#5" to="104012170"/>
	<trip id="h2483c1:1" type="default_016" depart="265.60" from="104010354" to="124812857#0"/>
	<trip id="carIn75793:1" type="default_016" depart="283.00" from="653473569#5" to="104012170"/>
	<trip id="carIn133015:1" type="default_016" depart="284.20" from="201963537#1" to="-653473569#5"/>
	<trip id="h19571c2:3" type="default_016" depart="289.20" from="25149219#1" to="-653473569#5"/>
	<trip id="randUni24217:1" type="random_016" depart="296.20" from="201963537#1" to="-653473569#5"/>
	<trip id="randUni13258:1" type="random_016" depart="296.20" from="201963537#1" to="104012170"/>
	<trip id="carIn82741:1" type="default_016" depart="300.10" from="104010354" to="124812857#0"/>
	<trip id="h19249c2:1" type="default_016" depart="305.00" from="104010354" to="124812857#0"/>
	<trip id="h17593c1:1" type="default_016" depart="311.30" from="201963537#1" to="-653473569#5"/>
	<trip id="carIn125694:1" type="default_016" depart="312.20" from="104010354" to="124812857#0"/>
	<trip id="h8072c1:3" type="default_016" depart="325.70" from="653473569#5" to="104012170"/>
	<trip id="h8633c1:3" type="default_016" depart="334.20" from="104010354" to="124812857#0"/>
	<trip id="carIn112995:1" type="default_016" depart="341.30" from="201963537#1" to="-653473569#5"/>
	<trip id="carIn116805:1" type="default_016" depart="342.50" from="104010354" to="-653473569#5"/>
	<trip id="randUni5976:1" type="random_016" depart="346.40" from="25149219#1" to="-653473569#5"/>
	<trip id="carIn99578:1" type="default_016" depart="349.10" from="104010354" to="124812857#0"/>
	<trip id="carIn23683:1" type="default_016" depart="358.10" from="104010354" to="124812857#0"/>
	<trip id="h15937c1:3" type="default_016" depart="362.60" from="653473569#5" to="124812857#0"/>
	<trip id="carIn85069:1" type="default_016" depart="364.10" from="653473569#5" to="104012170"/>
	<trip id="h15472c1:3" type="default_016" depart="367.10" from="104010354" to="124812857#0"/>
	<trip id="carIn84877:1" type="default_016" depart="368.40" from="653473569#5" to="124812857#0"/>
	<trip id="h14212c1:3" type="default_016" depart="369.80" from="25149219#1" to="-653473569#5"/>
	<trip id="carIn96510:1" type="default_016" depart="369.90" from="104010354" to="124812857#0"/>
	<trip id="carIn9903:1" type="default_016" depart="370.90" from="653473569#5" to="104012170"/>
	<trip id="carIn119432:1" type="default_016" depart="371.80" from="104010354" to="124812857#0"/>
	<trip id="h19940c1:1" type="default_016" depart="372.50" from="25149219#1" to="-653473569#5"/>
	<trip id="carIn60827:1" type="default_016" depart="375.10" from="25149219#1" to="-653473569#5"/>
	<trip id="h15631c1:1" type="default_016" depart="377.70" from="25149219#1" to="-653473569#5"/>
	<trip id="carIn56192:1" type="default_016" depart="380.20" from="653473569#5" to="104012170"/>
	<trip id="carIn84735:1" type="default_016" depart="380.30" from="25149219#1" to="-653473569#5"/>
	<trip id="carIn114414:1" type="default_016" depart="381.80" from="653473569#5" to="104012170"/>
	<trip id="carIn67360:1" type="default_016" depart="383.20" from="201963537#1" to="-653473569#5"/>
	<trip id="carIn12479:1" type="default_016" depart="393.40" from="104010354" to="124812857#0"/>
	<trip id="h20688c2:1" type="default_016" depart="398.20" from="25149219#1" to="-653473569#5"/>
	<trip id="carIn41392:1" type="default_016" depart="401.90" from="104010354" to="124812857#0"/>
	<trip id="h7703c2:3" type="default_016" depart="403.20" from="25149219#1" to="104012170"/>
	<trip id="randUni11417:1" type="random_016" depart="409.20" from="201963537#1" to="-653473569#5"/>
	<trip id="carIn72005:1" type="default_016" depart="411.90" from="25149219#1" to="-653473569#5"/>
	<trip id="carIn68143:1" type="default_016" depart="414.40" from="25149219#1" to="-653473569#5"/>
	<trip id="carIn11789:1" type="default_016" depart="416.90" from="25149219#1" to="-653473569#5"/>
	<trip id="h1498c1:1" type="default_016" depart="418.20" from="653473569#5" to="124812857#0"/>
	<trip id="carIn7612:1" type="default_016" depart="419.40" from="25149219#1" to="-653473569#5"/>
	<trip id="carIn39729:1" type="default_016" depart="420.70" from="104010354" to="124812857#0"/>
	<trip id="carIn131497:1" type="default_016" depart="422.20" from="201963537#1" to="-653473569#5"/>
	<trip id="carIn127325:1" type="default_016" depart="422.80" from="653473569#5" to="124812857#0"/>
	<trip id="h21908c1:3" type="default_016" depart="423.90" from="104010354" to="124812857#0"/>
	<trip id="h22816c2:3" type="default_016" depart="425.70" from="104010354" to="124812857#0"/>
	<trip id="h2510c1:1" type="default_016" depart="428.00" from="104010354" to="124812857#0"/>
	<trip id="randUni3712:1" type="random_016" depart="430.40" from="104010354" to="124812857#0"/>
	<trip id="carIn38599:1" type="default_016" depart="437.60" from="653473569#5" to="124812857#0"/>
	<trip id="randUni2621:1" type="random_016" depart="444.80" from="653473569#5" to="124812857#0"/>
	<trip id="carIn37367:1" type="default_016" depart="453.60" from="653473569#5" to="124812857#0"/>
	<trip id="carIn79899:1" type="default_016" depart="454.90" from="104010354" to="124812857#0"/>
	<trip id="carIn38141:1" type="default_016" depart="457.90" from="653473569#5" to="104012170"/>
	<trip id="carIn53610:1" type="default_016" depart="459.20" from="104010354" to="124812857#0"/>
	<trip id="carIn76776:1" type="default_016" depart="459.50" from="653473569#5" to="104012170"/>
	<trip id="carIn20383:1" type="default_016" depart="460.10" from="104010354" to="124812857#0"/>
	<trip id="carIn68993:1" type="default_016" depart="462.20" from="104010354" to="124812857#0"/>
	<trip id="carIn24856:1" type="default_016" depart="462.80" from="25149219#1" to="-653473569#5"/>
	<trip id="carIn10740:1" type="default_016" depart="463.90" from="104010354" to="124812857#0"/>
	<trip id="carIn98213:1" type="default_016" depart="465.50" from="25149219#1" to="-653473569#5"/>
	<trip id="h923c1:1" type="default_016" depart="468.00" from="25149219#1" to="-653473569#5"/>
	<trip id="randUni10337:1" type="random_016" depart="469.20" from="201963537#1" to="-653473569#5"/>
	<trip id="carIn127284:1" type="default_016" depart="470.40" from="653473569#5" to="104012170"/>
	<trip id="carIn127301:1" type="default_016" depart="470.60" from="25149219#1" to="-653473569#5"/>
	<trip id="h10915c1:1" type="default_016" depart="472.20" from="201963537#1" to="-653473569#5"/>
	<trip id="carIn32403:1" type="default_016" depart="473.20" from="25149219#1" to="-653473569#5"/>
	<trip id="carIn17428:1" type="default_016" depart="486.80" from="104010354" to="124812857#0"/>
	<trip id="carIn90208:1" type="default_016" depart="489.40" from="104010354" to="124812857#0"/>
	<trip id="carIn19971:1" type="default_016" depart="494.90" from="104010354" to="124812857#0"/>
	<trip id="carIn116330:1" type="default_016" depart="497.40" from="104010354" to="124812857#0"/>
	<trip id="carIn62536:1" type="default_016" depart="500.00" from="104010354" to="124812857#0"/>
	<trip id="carIn29260:1" type="default_016" depart="502.60" from="25149219#1" to="-653473569#5"/>
	<trip id="carIn39560:1" type="default_016" depart="502.60" from="104010354" to="124812857#0"/>
	<trip id="carIn52219:1" type="default_016" depart="504.90" from="25149219#1" to="-653473569#5"/>
	<trip id="carIn123383:1" type="default_016" depart="513.80" from="25149219#1" to="-653473569#5"/>
	<trip id="carIn68387:1" type="default_016" depart="515.10" from="104010354" to="124812857#0"/>
	<trip id="h21566c2:1" type="default_016" depart="516.30" from="25149219#1" to="-653473569#5"/>
	<trip id="h21004c2:1" type="default_016" depart="518.80" from="25149219#1" to="-653473569#5"/>
	<trip id="carIn88113:1" type="default_016" depart="521.30" from="25149219#1" to="-653473569#5"/>
	<trip id="carIn3522:1" type="default_016" depart="523.80" from="25149219#1" to="-653473569#5"/>
	<trip id="carIn48247:1" type="default_016" depart="525.30" from="653473569#5" to="104012170"/>
	<trip id="h22316c2:1" type="default_016" depart="526.30" from="25149219#1" to="-653473569#5"/>
	<trip id="carIn2369:1" type="default_016" depart="526.80" from="653473569#5" to="124812857#0"/>
	<trip id="carIn56385:1" type="default_015" depart="528.20" from="201963537#1" to="-653473569#5"/>
	<trip id="carIn64375:1" type="default_016" depart="530.00" from="25149219#1" to="-653473569#5"/>
	<trip id="carIn123917:1" type="default_016" depart="532.60" from="25149219#1" to="-653473569#5"/>
	<trip id="carIn128652:1" type="default_016" depart="535.30" from="25149219#1" to="-653473569#5"/>
	<trip id="h8445c2:3" type="default_016" depart="538.10" from="25149219#1" to="104012170"/>
	<trip id="h23154c1:1" type="default_016" depart="540.90" from="25149219#1" to="-653473569#5"/>
	<trip id="randUni31946:1" type="random_016" depart="547.10" from="104010354" to="124812857#0"/>
	<trip id="h3063c2:1" type="default_016" depart="549.70" from="104010354" to="124812857#0"/>
	<trip id="carIn34148:1" type="default_016" depart="551.90" from="25149219#1" to="-653473569#5"/>
	<trip id="carIn94927:1" type="default_016" depart="552.40" from="104010354" to="124812857#0"/>
	<trip id="carIn68997:1" type="default_016" depart="554.20" from="104010354" to="124812857#0"/>
	<trip id="carIn37169:1" type="default_016" depart="554.40" from="25149219#1" to="104012170"/>
	<trip id="carIn50343:1" type="default_016" depart="556.20" from="104010354" to="124812857#0"/>
	<trip id="carIn37120:1" type="default_016" depart="556.80" from="25149219#1" to="104012170"/>
	<trip id="carIn12160:1" type="default_016" depart="558.10" from="104010354" to="124812857#0"/>
	<trip id="h6245c2:3" type="default_016" depart="559.20" from="25149219#1" to="-653473569#5"/>
	<trip id="carIn19920:1" type="default_016" depart="559.30" from="653473569#5" to="124812857#0"/>
	<trip id="carIn34418:1" type="default_016" depart="561.60" from="25149219#1" to="-653473569#5"/>
	<trip id="carIn41120:1" type="default_016" depart="564.00" from="25149219#1" to="104012170"/>
	<trip id="h576c1:1" type="default_016" depart="566.20" from="201963537#1" to="-653473569#5"/>
	<trip id="carIn86468:1" type="default_016" depart="569.60" from="104010354" to="124812857#0"/>
	<trip id="carIn12663:1" type="default_016" depart="573.00" from="104010354" to="124812857#0"/>
	<trip id="carIn20162:1" type="default_016" depart="575.30" from="104010354" to="124812857#0"/>
	<trip id="carIn5778:1" type="default_016" depart="578.30" from="104010354" to="124812857#0"/>
	<trip id="carIn5041:1" type="default_016" depart="581.10" from="104010354" to="124812857#0"/>
	<trip id="carIn127632:1" type="default_016" depart="583.10" from="104010354" to="124812857#0"/>
	<trip id="carIn56251:1" type="default_016" depart="585.20" from="104010354" to="124812857#0"/>
	<trip id="carIn77315:1" type="default_016" depart="588.60" from="104010354" to="124812857#0"/>
	<trip id="h6054c1:2" type="default_016" depart="603.30" from="25149219#1" to="104012170"/>
	<trip id="randUni18940:1" type="random_016" depart="605.10" from="104010354" to="124812857#0"/>
	<trip id="carIn66513:1" type="default_016" depart="605.60" from="25149219#1" to="104012170"/>
	<trip id="randUni19887:1" type="random_016" depart="610.20" from="201963537#1" to="-653473569#5"/>
	<trip id="h15400c2:1" type="default_016" depart="619.80" from="201963537#1" to="104012170"/>
	<trip id="h21824c1:1" type="default_016" depart="620.10" from="201963537#1" to="104012170"/>
	<trip id="carIn126777:1" type="default_016" depart="620.30" from="201963537#1" to="104012170"/>
	<trip id="carIn89965:1" type="default_016" depart="621.70" from="201963537#1" to="104012170"/>
	<trip id="carIn49867:1" type="default_016" depart="622.50" from="201963537#1" to="104012170"/>
	<trip id="carIn8883:1" type="default_016" depart="624.20" from="201963537#1" to="104012170"/>
	<trip id="carIn15039:1" type="default_016" depart="624.20" from="201963537#1" to="104012170"/>
	<trip id="h15464c1:1" type="default_016" depart="625.70" from="201963537#1" to="104012170"/>
	<trip id="h8685c2:3" type="default_016" depart="625.80" from="201963537#1" to="104012170"/>
	<trip id="carIn128043:1" type="default_016" depart="627.30" from="201963537#1" to="104012170"/>
	<trip id="carIn1027:1" type="default_016" depart="628.80" from="201963537#1" to="104012170"/>
	<trip id="carIn113388:1" type="default_016" depart="629.90" from="201963537#1" to="104012170"/>
	<trip id="carIn127546:1" type="default_016" depart="632.20" from="653473569#5" to="124812857#0"/>
	<trip id="carIn121427:1" type="default_016" depart="636.30" from="653473569#5" to="104012170"/>
	<trip id="h8213c1:1" type="default_016" depart="637.20" from="104010354" to="124812857#0"/>
	<trip id="carIn36263:1" type="default_016" depart="639.10" from="104010354" to="-653473569#5"/>
	<trip id="carIn35162:1" type="default_016" depart="639.60" from="104010354" to="124812857#0"/>
	<trip id="randUni3772:1" type="random_016" depart="640.90" from="653473569#5" to="124812857#0"/>
	<trip id="carIn42850:1" type="default_016" depart="641.10" from="104010354" to="124812857#0"/>
	<trip id="carIn77862:1" type="default_016" depart="643.70" from="104010354" to="124812857#0"/>
	<trip id="h19118c1:3" type="default_016" depart="645.50" from="104010354" to="124812857#0"/>
	<trip id="carIn30844:1" type="default_016" depart="649.80" from="201963537#1" to="104012170"/>
	<trip id="carIn98523:1" type="default_016" depart="650.80" from="201963537#1" to="104012170"/>
	<trip id="h8478c1:3" type="default_016" depart="652.20" from="201963537#1" to="104012170"/>
	<trip id="carIn103533:1" type="default_016" depart="652.30" from="201963537#1" to="104012170"/>
	<trip id="carIn6929:1" type="default_016" depart="653.70" from="201963537#1" to="104012170"/>
	<trip id="carIn86501:1" type="default_016" depart="653.80" from="201963537#1" to="104012170"/>
	<trip id="randUni13455:1" type="random_016" depart="655.40" from="201963537#1" to="104012170"/>
	<trip id="h2865c2:1" type="default_016" depart="656.80" from="653473569#5" to="104012170"/>
	<trip id="carIn53389:1" type="default_016" depart="657.10" from="201963537#1" to="104012170"/>
	<trip id="carIn87704:1" type="default_016" depart="658.80" from="201963537#1" to="104012170"/>
	<trip id="carIn133726:1" type="default_016" depart="660.50" from="201963537#1" to="104012170"/>
	<trip id="carIn118174:1" type="default_016" depart="662.10" from="201963537#1" to="104012170"/>
	<trip id="carIn42999:1" type="default_016" depart="662.30" from="201963537#1" to="104012170"/>
	<trip id="carIn32851:1" type="default_016" depart="664.20" from="201963537#1" to="104012170"/>
	<trip id="carIn132615:1" type="default_016" depart="664.80" from="653473569#5" to="104012170"/>
	<trip id="carIn8344:1" type="default_016" depart="666.00" from="201963537#1" to="104012170"/>