<?xml version="1.0" encoding="UTF-8"?>
<routes xmlns:xsi="http://www.w3.org/2001/XMLSchema-instance" xsi:noNamespaceSchemaLocation="http://sumo.dlr.de/xsd/routes_file.xsd">
	<vType id="bus" vClass="bus" color="green"/>
	<vType id="default_017" vClass="passenger" color="red"/>
    <vType id="random_017" vClass="passenger" color="red"/>
	<vType id="default_016" vClass="passenger" color="red"/>
    <vType id="random_016" vClass="passenger" color="red"/>
	<vType id="default_015" vClass="passenger" color="red"/>
    <vType id="random_015" vClass="passenger" color="red"/>
	<vType id="default_014" vClass="passenger" color="red"/>
    <vType id="random_014" vClass="passenger" color="red"/>
	<vType id="default_013" vClass="passenger" color="red"/>
    <vType id="random_013" vClass="passenger" color="red"/>
    <vType id="default_012" vClass="passenger" color="red"/>
    <vType id="random_012" vClass="passenger" color="red"/>
	<vType id="default_011" vClass="passenger" color="red"/>
    <vType id="random_011" vClass="passenger" color="red"/>
	<vType id="default_010" vClass="passenger" color="red"/>
    <vType id="random_010" vClass="passenger" color="red"/>
	<vType id="default_009" vClass="passenger" color="red"/>
    <vType id="random_009" vClass="passenger" color="red"/>
	<vType id="default_008" vClass="passenger" color="red"/>
    <vType id="random_008" vClass="passenger" color="red"/>
	<vType id="default_007" vClass="passenger" color="red"/>
    <vType id="random_007" vClass="passenger" color="red"/>
	<vType id="default_006" vClass="passenger" color="red"/>
    <vType id="random_006" vClass="passenger" color="red"/>
	<vType id="default_005" vClass="passenger" color="red"/>
    <vType id="random_005" vClass="passenger" color="red"/>
	<vType id="default_004" vClass="passenger" color="red"/>
    <vType id="random_004" vClass="passenger" color="red"/>
	<vType id="default_003" vClass="passenger" color="red"/>
    <vType id="random_003" vClass="passenger" color="red"/>
	<vType id="default_022" vClass="passenger" color="red"/>
    <vType id="random_022" vClass="passenger" color="red"/>
	<vType id="default_021" vClass="passenger" color="red"/>
    <vType id="random_021" vClass="passenger" color="red"/>
	<vType id="default_020" vClass="passenger" color="red"/>
    <vType id="random_020" vClass="passenger" color="red"/>
	<vType id="default_019" vClass="passenger" color="red"/>
    <vType id="random_019" vClass="passenger" color="red"/>
	<vType id="default_018" vClass="passenger" color="red"/>
    <vType id="random_018" vClass="passenger" color="red"/>
	<vType id="default_002" vClass="passenger" color="red"/>
    <vType id="random_002" vClass="passenger" color="red"/>
	<vType id="default_001" vClass="passenger" color="red"/>
    <vType id="random_001" vClass="passenger" color="red"/>
	<trip id="h2831c1:1" type="default_016" depart="0.00" from="201089423#0" to="-315358244"/>
	<trip id="carIn107084:1" type="default_016" depart="0.30" from="124812856#0" to="-128361102#1"/>
	<trip id="carIn80064:1" type="default_016" depart="2.60" from="128361109#1" to="-315358254#1"/>
	<trip id="randUni10474:1" type="random_016" depart="4.80" from="124812856#0" to="306240162#0"/>
	<trip id="carIn60260:1" type="default_016" depart="5.10" from="315358254#0" to="399835085#1"/>
	<trip id="randUni14624:1" type="random_016" depart="5.20" from="315358244" to="-25149001#4"/>
	<trip id="carIn77943:1" type="default_016" depart="5.50" from="124812856#0" to="-128361102#1"/>
	<trip id="carIn28951:1" type="default_016" depart="5.80" from="10425609#0" to="-128361102#1"/>
	<trip id="carIn81046:1" type="default_016" depart="8.50" from="124812856#0" to="-128361102#1"/>
	<trip id="h15454c2:3" type="default_016" depart="11.50" from="24608844" to="32978638#0"/>
	<trip id="h12244c1:3" type="default_016" depart="11.60" from="315358244" to="386687235"/>
	<trip id="S5R_frequency1.2" type="bus" depart="11.60" from="315358250#0" to="386687235"/>
	<trip id="carIn48184:1" type="default_016" depart="12.30" from="-306240162#1" to="386687235"/>
	<trip id="carIn77438:1" type="default_016" depart="12.90" from="124812856#0" to="-128361102#1"/>
	<trip id="carIn22761:1" type="default_016" depart="13.90" from="-306240162#1" to="399835085#1"/>
	<trip id="h19804c1:3" type="default_016" depart="15.50" from="124812856#0" to="-128361102#1"/>
	<trip id="carIn82220:1" type="default_016" depart="15.50" from="-306240162#1" to="386687235"/>
	<trip id="carIn86816:1" type="default_016" depart="16.20" from="128361102#0" to="201956811#0"/>
	<trip id="carIn462:1" type="default_016" depart="17.20" from="-306240162#1" to="386687235"/>
	<trip id="carIn767:1" type="default_016" depart="18.50" from="124812856#0" to="306240162#0"/>
	<trip id="carIn107842:1" type="default_016" depart="21.10" from="124812856#0" to="-128361102#1"/>
	<trip id="h645c1:1" type="default_016" depart="21.60" from="266565295#5" to="-315358244"/>
	<trip id="h15382c1:3" type="default_016" depart="22.20" from="124812856#0" to="-128361102#1"/>
	<trip id="carIn3969:1" type="default_016" depart="23.70" from="124812856#0" to="-128361102#1"/>
	<trip id="carIn56649:1" type="default_016" depart="23.90" from="124812856#0" to="-128361102#1"/>
	<trip id="h3688c1:1" type="default_016" depart="25.00" from="201201950#1" to="32978638#0"/>
	<trip id="carIn38625:1" type="default_016" depart="25.50" from="124812856#0" to="306240162#0"/>
	<trip id="carIn116184:1" type="default_016" depart="26.90" from="-306240162#1" to="386687235"/>
	<trip id="carIn17767:1" type="default_016" depart="27.20" from="124812856#0" to="-128361102#1"/>
	<trip id="carIn64859:1" type="default_016" depart="28.40" from="124812856#0" to="306240162#0"/>
	<trip id="carIn31257:1" type="default_016" depart="28.40" from="-306240162#1" to="386687235"/>
	<trip id="carIn48979:1" type="default_016" depart="28.90" from="124812856#0" to="306240162#0"/>
	<trip id="h9563c2:5" type="default_016" depart="30.30" from="315358244" to="386687235"/>
	<trip id="carIn88932:1" type="default_016" depart="30.60" from="124812856#0" to="-128361102#1"/>
	<trip id="h15353c2:1" type="default_016" depart="30.70" from="124812856#0" to="306240162#0"/>
	<trip id="h5170c2:1" type="default_016" depart="31.00" from="201201953#4" to="-266565295#5"/>
	<trip id="carIn44740:1" type="default_016" depart="32.30" from="124812856#0" to="-128361102#1"/>
	<trip id="randUni29093:1" type="random_016" depart="33.00" from="124812856#0" to="201238729#3"/>
	<trip id="h20540c1:1" type="default_016" depart="33.50" from="10425609#0" to="-128361102#1"/>
	<trip id="carIn64490:1" type="default_016" depart="33.90" from="124812856#0" to="306240162#0"/>
	<trip id="h13311c1:3" type="default_016" depart="35.00" from="399835085#1" to="32978638#0"/>
	<trip id="carIn13362:1" type="default_016" depart="35.60" from="124812856#0" to="306240162#0"/>
	<trip id="carIn99385:1" type="default_016" depart="37.10" from="124812856#0" to="-128361102#1"/>
	<trip id="carIn101568:1" type="default_016" depart="37.50" from="-306240162#1" to="386687235"/>
	<trip id="carIn11547:1" type="default_016" depart="37.70" from="124812856#0" to="306240162#0"/>
	<trip id="carIn53971:1" type="default_016" depart="39.20" from="272042143" to="24634414#1"/>
	<trip id="carIn25314:1" type="default_016" depart="40.20" from="124812856#0" to="306240162#0"/>
	<trip id="carIn23683:1" type="default_016" depart="40.80" from="-306240162#1" to="201956820"/>
	<trip id="carIn102915:1" type="default_016" depart="42.60" from="128361102#0" to="201956811#0"/>
	<trip id="carIn32621:1" type="default_016" depart="43.00" from="124812856#0" to="-128361102#1"/>
	<trip id="randUni33724:1" type="random_016" depart="44.80" from="128361102#0" to="201956811#0"/>
	<trip id="carIn96510:1" type="default_016" depart="44.80" from="-306240162#1" to="201956820"/>
	<trip id="carIn12152:1" type="default_016" depart="46.50" from="24599188#0.94" to="-315358254#1"/>
	<trip id="carIn121703:1" type="default_016" depart="46.70" from="386687232#0" to="-315358244"/>
	<trip id="carIn50326:1" type="default_016" depart="50.70" from="128361102#0" to="18809673#0"/>
	<trip id="h3568c1:3" type="default_016" depart="55.20" from="266565295#5" to="-24634415"/>
	<trip id="h3326c1:2" type="default_016" depart="56.00" from="22716069#0" to="24634517#13"/>
	<trip id="carIn106665:1" type="default_016" depart="57.20" from="266565295#5" to="201238729#3"/>
	<trip id="carIn61442:1" type="default_016" depart="57.30" from="-306240162#1" to="386687235"/>
	<trip id="h3154c1:1" type="default_016" depart="58.00" from="24634507" to="-266565295#5"/>
	<trip id="h7181c1:1" type="default_016" depart="59.90" from="315358254#0" to="306240162#0"/>
	<trip id="carIn12858:1" type="default_016" depart="60.10" from="128361109#1" to="399835085#1"/>
	<trip id="h16072c2:3" type="default_016" depart="60.50" from="315358254#0" to="386687235"/>
	<trip id="h21908c1:3" type="default_016" depart="60.60" from="399835085#1" to="201956820"/>
	<trip id="h17600c1:1" type="default_016" depart="61.70" from="272042143" to="201238729#3"/>
	<trip id="carIn100288:1" type="default_016" depart="63.40" from="128361102#0" to="201956811#0"/>
	<trip id="h11737c1:1" type="default_016" depart="63.50" from="272042143" to="-315358254#1"/>
	<trip id="h5216c1:1" type="default_016" depart="64.00" from="224892339#0" to="386687235"/>
	<trip id="carIn29531:1" type="default_016" depart="65.40" from="128361102#0" to="201956811#0"/>
	<trip id="carIn2912:1" type="default_016" depart="66.90" from="128361102#0" to="201956811#0"/>
	<trip id="carIn49437:1" type="default_016" depart="68.50" from="128361102#0" to="201956811#0"/>
	<trip id="h5979c1:5" type="default_016" depart="69.00" from="399835085#1" to="-315358254#1"/>
	<trip id="h7097c1:1" type="default_016" depart="69.40" from="315358242#0" to="306240162#0"/>
	<trip id="carIn85747:1" type="default_016" depart="72.30" from="128361109#1" to="386687235"/>
	<trip id="carIn27009:1" type="default_015" depart="72.50" from="-447569998#1" to="-26677539"/>
	<trip id="50R_frequency3.17" type="bus" depart="73.30" from="-18809673#6" to="201956811#0"/>
	<trip id="carIn7949:1" type="default_016" depart="73.90" from="128361109#1" to="386687235"/>
	<trip id="carIn126288:1" type="default_016" depart="74.00" from="272042143" to="-315358254#1"/>
	<trip id="h18601c1:3" type="default_016" depart="74.00" from="128361102#0" to="201956811#0"/>
	<trip id="carIn12775:1" type="default_016" depart="75.40" from="10425609#0" to="18809673#0"/>
	<trip id="carIn75660:1" type="default_016" depart="75.60" from="128361109#1" to="386687235"/>
	<trip id="h18996c2:1" type="default_016" depart="77.10" from="128361102#0" to="201956820"/>
	<trip id="carIn48137:1" type="default_016" depart="77.40" from="128361109#1" to="32978638#0"/>
	<trip id="carIn132618:1" type="default_016" depart="77.60" from="-306240162#1" to="386687235"/>
	<trip id="h3864c1:3" type="default_016" depart="78.00" from="24693977#1" to="201956820"/>
	<trip id="h8343c1:5" type="default_016" depart="78.40" from="315358254#0" to="-24634510#5"/>
	<trip id="carIn99578:1" type="default_016" depart="79.00" from="-306240162#1" to="201956820"/>
	<trip id="h19413c1:1" type="default_016" depart="79.10" from="128361109#1" to="386687235"/>
	<trip id="h17549c1:1" type="default_016" depart="80.00" from="-447569998#1" to="-315358254#1"/>
	<trip id="carIn30817:1" type="default_016" depart="80.80" from="315358244" to="447569997#1"/>
	<trip id="carIn92047:1" type="default_016" depart="81.80" from="-306240162#1" to="386687235"/>
	<trip id="carIn118538:1" type="default_016" depart="82.00" from="-447569998#1" to="399835085#1"/>
	<trip id="h9953c2:3" type="default_016" depart="82.00" from="-54169231#2" to="386687235"/>
	<trip id="carIn88905:1" type="default_016" depart="82.20" from="128361109#1" to="386687235"/>
	<trip id="carIn46110:1" type="default_016" depart="82.80" from="315358244" to="32978638#0"/>
	<trip id="carIn70061:1" type="default_016" depart="83.30" from="-306240162#1" to="386687235"/>
	<trip id="carIn119432:1" type="default_016" depart="84.70" from="-306240162#1" to="201956820"/>
	<trip id="carIn4826:1" type="default_016" depart="86.20" from="-306240162#1" to="386687235"/>
	<trip id="carIn118591:1" type="default_016" depart="88.80" from="315358244" to="386687235"/>
	<trip id="carIn99233:1" type="default_016" depart="89.10" from="128361109#1" to="386687235"/>
	<trip id="h825c2:3" type="default_016" depart="89.50" from="315358254#0" to="32978638#0"/>
	<trip id="h4388c1:3" type="default_016" depart="91.20" from="315358254#0" to="32978638#0"/>
	<trip id="h19577c1:1" type="default_016" depart="91.20" from="128361109#1" to="386687235"/>
	<trip id="h19505c1:1" type="default_016" depart="92.80" from="128361109#1" to="32978638#0"/>
	<trip id="carIn4388:1" type="default_016" depart="93.50" from="-306240162#1" to="386687235"/>
	<trip id="carIn5824:1" type="default_016" depart="94.40" from="128361109#1" to="386687235"/>
	<trip id="h7800c1:5" type="default_016" depart="96.00" from="-447569998#1" to="-447569998#1"/>
	<trip id="h7305c1:3" type="default_016" depart="96.10" from="128361109#1" to="40888354#0"/>
	<trip id="h15472c1:3" type="default_016" depart="97.00" from="-26677216#0" to="201956820"/>
	<trip id="h23116c2:5" type="default_016" depart="97.60" from="128361102#0" to="30482615#1"/>
	<trip id="h11868c1:5" type="default_016" depart="99.90" from="315358254#0" to="386687235"/>
	<trip id="h4538c1:1" type="default_016" depart="101.00" from="-10427692#1" to="-128361102#1"/>
	<trip id="carIn82278:1" type="default_016" depart="101.30" from="-306240162#1" to="399835085#1"/>
	<trip id="carIn23049:1" type="default_016" depart="105.30" from="-306240162#1" to="386687235"/>
	<trip id="h317c2:1" type="default_016" depart="106.90" from="-32978638#0" to="-266565295#5"/>
	<trip id="carIn60497:1" type="default_016" depart="109.90" from="-306240162#1" to="386687235"/>
	<trip id="carIn81860:1" type="default_016" depart="111.40" from="128361102#0" to="-24634517#17"/>
	<trip id="carIn12365:1" type="default_016" depart="112.50" from="315358244" to="447569997#1"/>
	<trip id="carIn92532:1" type="default_016" depart="112.50" from="266565295#5" to="18809673#0"/>
	<trip id="h16437c1:3" type="default_016" depart="116.20" from="315358254#0" to="386687235"/>
	<trip id="carIn36761:1" type="default_016" depart="119.50" from="-18809673#6" to="-266565295#5"/>
	<trip id="carIn99509:1" type="default_015" depart="119.80" from="-32978638#0" to="-315358244"/>
	<trip id="carIn81681:1" type="default_016" depart="125.70" from="272042143" to="306240162#0"/>
	<trip id="randUni3548:1" type="random_016" depart="126.00" from="-447569998#1" to="-315358254#1"/>
	<trip id="h6541c1:3" type="default_016" depart="127.00" from="201950247#3" to="32978638#0"/>
	<trip id="carIn129809:1" type="default_015" depart="128.00" from="-447569998#1" to="-315358244"/>
	<trip id="carIn13443:1" type="default_016" depart="128.20" from="272042143" to="399835085#1"/>
	<trip id="h19989c1:1" type="default_016" depart="129.40" from="10425609#0" to="-128361102#1"/>
	<trip id="carIn75793:1" type="default_016" depart="129.50" from="128361102#0" to="-83304175#2"/>
	<trip id="carIn80913:1" type="default_016" depart="131.60" from="272042143" to="306240162#0"/>
	<trip id="carIn92858:1" type="default_016" depart="132.20" from="10425609#0" to="-128361102#1"/>
	<trip id="h2483c1:1" type="default_016" depart="133.00" from="-24634510#15" to="201956820"/>
	<trip id="carIn36351:1" type="default_016" depart="133.90" from="-306240162#1" to="386687235"/>
	<trip id="carIn101439:1" type="default_016" depart="134.30" from="10425609#0" to="-128361102#1"/>
	<trip id="randUni15030:1" type="random_016" depart="134.90" from="386687232#0" to="26677539"/>
	<trip id="h330c1:1" type="default_016" depart="135.80" from="-32978638#0" to="-266565295#5"/>
	<trip id="carIn101266:1" type="default_016" depart="136.50" from="272042143" to="306240162#0"/>
	<trip id="carIn84229:1" type="default_016" depart="136.80" from="10425609#0" to="-128361102#1"/>
	<trip id="h15045c2:3" type="default_016" depart="137.30" from="315358254#0" to="32978638#0"/>
	<trip id="carIn129628:1" type="default_016" depart="138.50" from="24599188#0.94" to="-315358254#1"/>
	<trip id="carIn132499:1" type="default_016" depart="139.30" from="272042143" to="201238729#3"/>
	<trip id="h5938c1:1" type="default_016" depart="140.00" from="-26677542#0" to="447569997#1"/>
	<trip id="h6846c2:1" type="default_016" depart="141.00" from="26677213#0" to="386687235"/>
	<trip id="carIn14532:1" type="default_016" depart="141.10" from="272042143" to="399835085#1"/>
	<trip id="h10591c1:1" type="default_016" depart="142.40" from="266565295#5" to="18809673#0"/>
	<trip id="carIn73855:1" type="default_016" depart="142.50" from="386687232#0" to="-315358244"/>
	<trip id="h13760c1:1" type="default_016" depart="142.90" from="266565295#5" to="201238729#3"/>
	<trip id="carIn16842:1" type="default_016" depart="143.60" from="10425609#0" to="18809673#0"/>
	<trip id="carIn126378:1" type="default_016" depart="144.20" from="386687232#0" to="-315358244"/>
	<trip id="h7178c1:1" type="default_016" depart="145.00" from="315358254#0" to="386687235"/>
	<trip id="h13810c1:3" type="default_016" depart="147.00" from="399835085#1" to="32978638#0"/>
	<trip id="carIn107282:1" type="default_016" depart="149.00" from="-447569998#1" to="315358242#0"/>
	<trip id="h22816c2:3" type="default_016" depart="149.40" from="315358244" to="201956820"/>
	<trip id="carIn24735:1" type="default_016" depart="149.70" from="266565295#5" to="201238729#3"/>
	<trip id="carIn24709:1" type="default_016" depart="150.50" from="266565295#5" to="-24634506#2"/>
	<trip id="h8633c1:3" type="default_016" depart="152.00" from="24634510#0" to="201956820"/>
	<trip id="carIn123877:1" type="default_016" depart="152.50" from="-306240162#1" to="30482615#1"/>
	<trip id="carIn107484:1" type="default_016" depart="154.00" from="-306240162#1" to="386687235"/>
	<trip id="carIn121351:1" type="default_015" depart="154.70" from="-447569998#1" to="399835085#1"/>
	<trip id="carIn1513:1" type="default_016" depart="155.40" from="-306240162#1" to="386687235"/>
	<trip id="carIn41392:1" type="default_016" depart="156.80" from="-306240162#1" to="201956820"/>
	<trip id="carIn56449:1" type="default_016" depart="157.30" from="128361102#0" to="30482615#1"/>
	<trip id="carIn117869:1" type="default_016" depart="157.40" from="-32978638#0" to="-315358244"/>
	<trip id="carIn115169:1" type="default_016" depart="158.50" from="24599188#0.94" to="-10427692#3"/>
	<trip id="h8468c1:3" type="default_016" depart="160.00" from="176550249#3" to="201238729#3"/>
	<trip id="carIn125694:1" type="default_016" depart="160.40" from="128361102#0" to="201956820"/>
	<trip id="carIn27323:1" type="default_016" depart="160.50" from="24599188#0.94" to="-315358254#1"/>
	<trip id="carIn53503:1" type="default_016" depart="160.60" from="-306240162#1" to="24634510#6"/>
	<trip id="carIn49359:1" type="default_016" depart="164.50" from="128361109#1" to="386687235"/>
	<trip id="carIn82741:1" type="default_016" depart="164.60" from="128361102#0" to="201956820"/>
	<trip id="carIn70751:1" type="default_016" depart="166.10" from="128361109#1" to="386687235"/>
	<trip id="carIn106296:1" type="default_016" depart="167.00" from="124812856#0" to="18809673#0"/>
	<trip id="h3536c1:1" type="default_016" depart="167.00" from="-24634413#2" to="32978638#0"/>
	<trip id="carIn21399:1" type="default_016" depart="167.70" from="128361109#1" to="-315358254#1"/>
	<trip id="h19249c2:1" type="default_016" depart="168.90" from="128361102#0" to="201956820"/>
	<trip id="carIn7286:1" type="default_016" depart="169.30" from="128361109#1" to="386687235"/>
	<trip id="carIn75964:1" type="default_016" depart="171.20" from="128361109#1" to="386687235"/>
	<trip id="carIn48897:1" type="default_016" depart="172.80" from="128361109#1" to="386687235"/>
	<trip id="carIn8642:1" type="default_016" depart="173.10" from="-447569998#1" to="-315358244"/>
	<trip id="carIn104643:1" type="default_016" depart="173.50" from="124812856#0" to="18809673#0"/>
	<trip id="h17039c2:3" type="default_016" depart="176.40" from="315358254#0" to="386687235"/>
	<trip id="carIn90140:1" type="default_016" depart="176.60" from="128361109#1" to="399835085#1"/>
	<trip id="h15937c1:3" type="default_016" depart="177.10" from="128361102#0" to="201956811#0"/>
	<trip id="carIn60867:1" type="default_016" depart="178.20" from="128361109#1" to="386687235"/>
	<trip id="carIn17428:1" type="default_016" depart="179.80" from="-306240162#1" to="201956820"/>
	<trip id="carIn121314:1" type="default_016" depart="179.90" from="128361109#1" to="386687235"/>
	<trip id="carIn68868:1" type="default_016" depart="181.20" from="-306240162#1" to="386687235"/>
	<trip id="h9261c1:3" type="default_016" depart="181.70" from="128361109#1" to="386687235"/>
	<trip id="h13540c2:3" type="default_016" depart="181.90" from="315358244" to="32978638#0"/>
	<trip id="carIn82298:1" type="default_016" depart="182.40" from="-447569998#1" to="-315358254#1"/>
	<trip id="carIn90208:1" type="default_016" depart="182.50" from="-306240162#1" to="201956820"/>
	<trip id="h18522c1:1" type="default_016" depart="183.40" from="128361109#1" to="-315358254#1"/>
	<trip id="carIn39194:1" type="default_016" depart="183.80" from="-306240162#1" to="386687235"/>
	<trip id="carIn84877:1" type="default_016" depart="184.00" from="-18809673#6" to="201956820"/>
	<trip id="carIn116478:1" type="default_016" depart="185.10" from="128361109#1" to="-315358254#1"/>
	<trip id="carIn7631:1" type="default_016" depart="185.30" from="-32978638#0" to="-315358244"/>
	<trip id="carIn19971:1" type="default_016" depart="185.40" from="-306240162#1" to="201956820"/>
	<trip id="carIn85069:1" type="default_016" depart="185.50" from="128361102#0" to="-83304175#2"/>
	<trip id="carIn21032:1" type="default_016" depart="186.70" from="-306240162#1" to="386687235"/>
	<trip id="carIn96088:1" type="default_016" depart="188.10" from="-306240162#1" to="386687235"/>
	<trip id="carIn29676:1" type="default_016" depart="189.00" from="-160314345#5" to="-24634505"/>
	<trip id="carIn119559:1" type="default_016" depart="189.60" from="-306240162#1" to="386687235"/>
	<trip id="carIn47165:1" type="default_016" depart="191.10" from="-306240162#1" to="386687235"/>
	<trip id="h17890c1:3" type="default_016" depart="192.00" from="386687232#0" to="32978638#0"/>
	<trip id="carIn66532:1" type="default_016" depart="192.50" from="-306240162#1" to="386687235"/>
	<trip id="carIn76675:1" type="default_016" depart="194.40" from="-160314345#5" to="-315358254#1"/>
	<trip id="h19105c2:3" type="default_016" depart="194.40" from="10425609#0" to="-128361102#1"/>
	<trip id="carIn15314:1" type="default_016" depart="195.60" from="128361109#1" to="386687235"/>
	<trip id="h3301c2:3" type="default_016" depart="197.00" from="24634517#1" to="306240162#0"/>
	<trip id="h19054c1:1" type="default_016" depart="199.30" from="-306240162#1" to="386687235"/>
	<trip id="carIn123224:1" type="default_016" depart="200.90" from="128361109#1" to="-315358244"/>
	<trip id="carIn102242:1" type="default_016" depart="201.10" from="315358244" to="386687235"/>
	<trip id="carIn68387:1" type="default_016" depart="202.80" from="315358244" to="201956820"/>
	<trip id="h13377c2:3" type="default_016" depart="203.40" from="315358244" to="447569997#1"/>
	<trip id="carIn27185:1" type="default_016" depart="204.30" from="-306240162#1" to="386687235"/>
	<trip id="carIn9903:1" type="default_016" depart="204.70" from="-18809673#6" to="386687235"/>
	<trip id="carIn70533:1" type="default_016" depart="211.90" from="-447569998#1" to="-315358244"/>
	<trip id="h18243c1:3" type="default_016" depart="212.00" from="399835085#1" to="18809673#0"/>
	<trip id="carIn43750:1" type="default_016" depart="212.10" from="-306240162#1" to="386687235"/>
	<trip id="h1722c1:1" type="default_016" depart="213.00" from="18813598#2" to="-315358254#1"/>
	<trip id="randUni19661:1" type="random_016" depart="213.60" from="-306240162#1" to="272042145"/>
	<trip id="randUni31145:1" type="random_016" depart="213.70" from="10425609#0" to="201956810"/>
	<trip id="randUni2407:1" type="random_016" depart="219.20" from="10425609#0" to="201956810"/>
	<trip id="carIn114105:1" type="default_016" depart="220.80" from="10425609#0" to="306240162#0"/>
	<trip id="carIn9695:1" type="default_016" depart="221.20" from="272042143" to="-315358254#1"/>
	<trip id="carIn114651:1" type="default_016" depart="221.40" from="-306240162#1" to="272042145"/>
	<trip id="h2859c1:1" type="default_016" depart="221.90" from="201238726#0.117" to="386687235"/>
	<trip id="carIn116330:1" type="default_016" depart="222.90" from="-306240162#1" to="201956820"/>
	<trip id="carIn95912:1" type="default_016" depart="223.60" from="272042143" to="201238729#3"/>
	<trip id="carIn76994:1" type="default_016" depart="225.20" from="272042143" to="399835085#1"/>
	<trip id="carIn72316:1" type="default_016" depart="225.50" from="10425609#0" to="18809673#0"/>
	<trip id="randUni31946:1" type="random_016" depart="226.00" from="22724699#7" to="201956820"/>
	<trip id="carIn129116:1" type="default_016" depart="226.30" from="-306240162#1" to="386687235"/>
	<trip id="carIn11414:1" type="default_016" depart="226.80" from="272042143" to="306240162#0"/>
	<trip id="randUni20153:1" type="random_016" depart="228.40" from="272042143" to="201238729#3"/>
	<trip id="carIn56192:1" type="default_016" depart="229.00" from="-18809673#6" to="386687235"/>
	<trip id="h24c1:1" type="default_016" depart="229.10" from="315358254#0" to="32978638#0"/>
	<trip id="carIn42952:1" type="default_016" depart="230.00" from="272042143" to="399835085#1"/>
	<trip id="h13194c2:1" type="default_016" depart="231.60" from="272042143" to="306240162#0"/>
	<trip id="h5239c1:3" type="default_016" depart="233.20" from="315358254#0" to="224892361#3"/>
	<trip id="h13496c1:1" type="default_016" depart="233.20" from="272042143" to="399835085#1"/>
	<trip id="carIn34399:1" type="default_016" depart="233.40" from="-306240162#1" to="386687235"/>
	<trip id="carIn6863:1" type="default_016" depart="234.80" from="272042143" to="306240162#0"/>
	<trip id="carIn104131:1" type="default_016" depart="234.90" from="-306240162#1" to="-315358254#1"/>
	<trip id="h8191c1:3" type="default_016" depart="235.20" from="315358244" to="-201238724"/>
	<trip id="carIn17722:1" type="default_016" depart="236.40" from="272042143" to="306240162#0"/>
	<trip id="carIn13353:1" type="default_016" depart="237.70" from="-447569998#1" to="-315358244"/>
	<trip id="carIn70936:1" type="default_016" depart="237.90" from="24599188#0.94" to="-315358254#1"/>
	<trip id="carIn89697:1" type="default_016" depart="238.00" from="272042143" to="201238729#3"/>
	<trip id="h8222c1:5" type="default_016" depart="238.10" from="266565295#5" to="-201238724"/>
	<trip id="carIn62536:1" type="default_016" depart="238.90" from="-306240162#1" to="201956820"/>
	<trip id="carIn36687:1" type="default_016" depart="239.90" from="24599188#0.94" to="-315358254#1"/>
	<trip id="carIn39729:1" type="default_016" depart="240.00" from="128361102#0" to="201956820"/>
	<trip id="10_frequency1.43" type="bus" depart="240.00" from="28319300#3" to="32978638#0"/>
	<trip id="carIn63848:1" type="default_016" depart="240.20" from="-447569998#1" to="-315358244"/>
	<trip id="carIn39560:1" type="default_016" depart="240.40" from="-306240162#1" to="201956820"/>
	<trip id="carIn127325:1" type="default_016" depart="241.50" from="128361102#0" to="201956811#0"/>
	<trip id="carIn32833:1" type="default_016" depart="243.60" from="24599188#0.94" to="-315358254#1"/>
	<trip id="carIn116805:1" type="default_016" depart="244.00" from="266565295#5" to="18809673#0"/>
	<trip id="carIn20174:1" type="default_016" depart="245.20" from="-32978638#0" to="306240162#0"/>
	<trip id="carIn103218:1" type="default_016" depart="245.20" from="-306240162#1" to="272042145"/>
	<trip id="carIn114414:1" type="default_016" depart="245.30" from="-18809673#6" to="-83304175#2"/>
	<trip id="carIn94927:1" type="default_016" depart="246.60" from="-306240162#1" to="201956820"/>
	<trip id="carIn2162:1" type="default_016" depart="246.80" from="-32978638#0" to="306240162#0"/>
	<trip id="carIn68997:1" type="default_016" depart="248.00" from="-306240162#1" to="201956811#0"/>
	<trip id="carIn119881:1" type="default_016" depart="248.10" from="128361109#1" to="386687235"/>
	<trip id="carIn83006:1" type="default_016" depart="248.50" from="-32978638#0" to="201238729#3"/>
	<trip id="carIn92360:1" type="default_016" depart="249.70" from="128361109#1" to="386687235"/>
	<trip id="carIn101921:1" type="default_016" depart="250.10" from="-32978638#0" to="-315358244"/>
	<trip id="h2510c1:1" type="default_016" depart="251.00" from="-24634510#15" to="201956820"/>
	<trip id="h7759c1:3" type="default_016" depart="251.80" from="-32978638#0" to="-315358244"/>
	<trip id="carIn38599:1" type="default_016" depart="253.00" from="128361102#0" to="201956811#0"/>
	<trip id="carIn120813:1" type="default_016" depart="255.60" from="24599188#0.94" to="-315358254#1"/>
	<trip id="carIn64958:1" type="default_016" depart="256.40" from="10425609#0" to="18809673#0"/>
	<trip id="carIn11138:1" type="default_016" depart="257.20" from="315358254#0" to="-266565295#5"/>
	<trip id="carIn79268:1" type="default_016" depart="257.30" from="-306240162#1" to="-315358254#1"/>
	<trip id="h2996c1:3" type="default_016" depart="258.00" from="22879845" to="-315358254#1"/>
	<trip id="carIn43306:1" type="default_016" depart="258.80" from="-306240162#1" to="386687235"/>
	<trip id="carIn20516:1" type="default_016" depart="258.90" from="315358254#0" to="-266565295#5"/>
	<trip id="h19314c2:1" type="default_016" depart="260.00" from="128361109#1" to="386687235"/>
	<trip id="h4943c1:3" type="default_016" depart="261.00" from="-399835085#0" to="201238729#3"/>
	<trip id="randUni24217:1" type="random_016" depart="261.20" from="124812856#0" to="18809673#0"/>